19
Iteration:  3611charge 0 multiplicity 1
 C        -3.068876         0.062678         2.874362
 C        -2.439126         0.209326         1.436339
 C        -3.196636        -0.319195         0.236390
 C        -2.147105        -1.171208         0.901326
 C        -0.808174        -1.180120         0.278390
 C        -0.251176         0.042813        -0.319575
 O         0.436939        -0.022722        -1.317668
 O        -0.696203         1.300619         0.141766
 C        -1.294794         1.162534         1.464713
 H        -4.001372        -0.403229         2.687365
 H        -2.514325        -0.652374         3.519797
 H        -3.369717         1.032517         3.255717
 H        -4.155691        -0.860408         0.411215
 H        -2.834053        -0.058858        -0.735911
 H        -2.274381        -1.904834         1.643704
 H        -0.084351        -1.536706         1.106002
 H        -0.773333        -1.795879        -0.618252
 H        -0.597685         0.863250         2.237798
 H        -1.539534         2.230357         1.728771
