19
Iteration:   198charge 0 multiplicity 1
 C        -2.930073         0.124505         2.921619
 C        -2.455701         0.149832         1.455695
 C        -3.335763        -0.385990         0.313760
 C        -2.085240        -1.220514         0.827279
 C        -0.713001        -1.307751         0.204254
 C        -0.242842         0.002588        -0.309418
 O         0.653449         0.091625        -1.112742
 O        -0.831880         1.218088         0.076640
 C        -1.534242         1.331934         1.299560
 H        -3.463743        -0.813366         3.103248
 H        -2.130278         0.321838         3.684466
 H        -3.698220         0.948595         2.962600
 H        -4.386501        -0.724656         0.295421
 H        -3.085402         0.168352        -0.544358
 H        -2.321673        -2.225326         1.374879
 H         0.008942        -1.481519         1.090174
 H        -0.573716        -2.062987        -0.547542
 H        -0.758262         1.252810         2.122442
 H        -1.934627         2.362335         1.372789
