19
Iteration:  4130charge 0 multiplicity 1
 C        -3.302516         0.057226         2.876679
 C        -2.528230         0.157850         1.533079
 C        -3.236225        -0.322515         0.287797
 C        -2.053742        -1.142337         0.883805
 C        -0.525321        -1.230236         0.280403
 C        -0.193885         0.027183        -0.418426
 O         0.354217         0.046682        -1.484747
 O        -0.526085         1.224565         0.251995
 C        -1.418011         1.215557         1.483176
 H        -4.172407        -0.623763         2.880329
 H        -2.740728        -0.159147         3.813471
 H        -3.739199         1.087449         2.967416
 H        -4.158446        -0.860245         0.588866
 H        -3.216376         0.297401        -0.672455
 H        -2.364610        -2.116408         1.255296
 H         0.149658        -1.327588         1.120109
 H        -0.410183        -2.099395        -0.341298
 H        -0.675508         1.079860         2.263916
 H        -1.583781         2.266725         1.612717
