19
Iteration:    59charge 0 multiplicity 1
 C        -3.456157         0.121257         2.668838
 C        -2.467014         0.168908         1.455378
 C        -3.016507        -0.444431         0.188111
 C        -1.957755        -1.185932         0.981339
 C        -0.408041        -1.170545         0.602827
 C        -0.260290         0.005124        -0.437954
 O        -0.005694         0.126986        -1.608927
 O        -0.454707         1.181015         0.315616
 C        -1.339497         1.242149         1.506860
 H        -4.446787        -0.210259         2.404271
 H        -2.982399        -0.588062         3.478009
 H        -3.598092         1.125247         3.217810
 H        -3.984753        -0.862418         0.502418
 H        -2.937251        -0.166271        -0.850173
 H        -2.320241        -2.252884         1.415788
 H         0.208618        -0.842617         1.433571
 H        -0.027975        -2.151451         0.285825
 H        -0.726065         0.938125         2.441194
 H        -1.719090         2.284246         1.657554
