19
Iteration:  3658
 C        -3.221237         0.203857         2.919130
 C        -2.412474         0.056148         1.662730
 C        -3.246867        -0.242966         0.256193
 C        -2.100661        -1.116295         0.783973
 C        -0.602278        -1.292085         0.228519
 C        -0.144245        -0.030039        -0.366203
 O         0.324957         0.078937        -1.465072
 O        -0.558922         1.113669         0.292043
 C        -1.432589         1.196142         1.420653
 H        -3.513502        -0.752327         3.410486
 H        -2.515678         0.649479         3.602436
 H        -4.059814         0.827866         2.603854
 H        -4.241138        -0.504457         0.421889
 H        -2.958783         0.595645        -0.439968
 H        -2.357879        -2.169129         1.066751
 H        -0.144009        -1.549395         1.202519
 H        -0.597276        -2.070026        -0.595833
 H        -0.831796         1.501566         2.333593
 H        -1.868778         2.120556         1.191052
