19
Iteration:  1676
 C        -3.278078         0.105777         2.769515
 C        -2.454783         0.077037         1.551584
 C        -3.031976        -0.620996         0.425663
 C        -1.915617        -1.285567         1.159115
 C        -0.475679        -1.093123         0.589697
 C        -0.213207         0.129284        -0.429850
 O         0.332258         0.067194        -1.505764
 O        -0.747298         1.284187        -0.074573
 C        -1.618884         1.336228         1.270445
 H        -3.879491         1.000713         2.870453
 H        -3.950682        -0.757672         2.864894
 H        -2.661236         0.011075         3.698141
 H        -3.939694        -1.203959         0.430955
 H        -2.883487        -0.400442        -0.664543
 H        -2.038058        -2.003923         1.945510
 H         0.089518        -0.858612         1.597502
 H         0.101866        -1.934833         0.134357
 H        -0.908833         1.530432         2.047853
 H        -2.195361         2.249591         1.199107
