19
Iteration:   350
 C        -2.833569         0.068798         3.004946
 C        -2.481712         0.125095         1.568941
 C        -3.441856        -0.577499         0.566339
 C        -2.096052        -1.174148         0.907610
 C        -0.849683        -1.273187         0.040248
 C        -0.160561         0.078282        -0.348420
 O         0.913664         0.167502        -0.935674
 O        -0.729867         1.248994        -0.054413
 C        -1.791195         1.341560         0.987047
 H        -2.023148         0.573968         3.630659
 H        -3.774647         0.713097         2.957488
 H        -3.114773        -1.000925         3.333964
 H        -4.240667        -1.101203         0.989867
 H        -3.507729         0.054515        -0.323220
 H        -2.050552        -2.130722         1.476260
 H        -0.076083        -1.912649         0.639673
 H        -1.042927        -1.948995        -0.812351
 H        -1.427109         2.177731         1.694432
 H        -2.572449         1.885812         0.430542
