19
Iteration:   144charge 0 multiplicity 1
 C        -3.477485         0.163262         2.827578
 C        -2.487413         0.135368         1.610906
 C        -3.074869        -0.347579         0.340984
 C        -1.915157        -1.188310         0.948795
 C        -0.534275        -1.269914         0.319384
 C        -0.240634         0.042253        -0.436614
 O         0.384215         0.067603        -1.498584
 O        -0.643938         1.239251         0.170549
 C        -1.397166         1.163525         1.461574
 H        -3.767711        -0.754564         3.200781
 H        -2.976897         0.707553         3.637876
 H        -4.363924         0.772237         2.615980
 H        -4.034669        -0.882278         0.321852
 H        -3.002888         0.281782        -0.509964
 H        -2.312610        -2.156342         1.467562
 H         0.287603        -1.393581         1.090475
 H        -0.497744        -2.104018        -0.360568
 H        -0.659331         1.080629         2.233905
 H        -1.749045         2.192368         1.562039
