19
Iteration:  4152charge 0 multiplicity 1
 C        -3.261373         0.067923         2.810362
 C        -2.337309         0.130271         1.567245
 C        -3.072776        -0.282334         0.295012
 C        -2.092817        -1.215474         0.881124
 C        -0.699496        -1.301494         0.255102
 C        -0.254580         0.026697        -0.369303
 O         0.359556         0.095934        -1.406468
 O        -0.627385         1.214474         0.232680
 C        -1.404126         1.266124         1.468631
 H        -3.559422        -0.988908         2.877796
 H        -2.684028         0.206365         3.765806
 H        -4.149203         0.736355         2.748324
 H        -4.143610        -0.554889         0.344618
 H        -2.701880         0.380275        -0.557661
 H        -2.406684        -2.130854         1.417880
 H        -0.041829        -1.604991         1.067465
 H        -0.699249        -2.109172        -0.459733
 H        -0.719812         1.608068         2.238272
 H        -1.896714         2.227231         1.328176
