19
Iteration:  1158
 C        -3.161882         0.325239         2.913052
 C        -2.602898         0.148836         1.359425
 C        -3.243504        -1.035563         0.625560
 C        -1.852932        -1.105889         1.224178
 C        -0.795224        -1.312443         0.120090
 C        -0.168809         0.064912        -0.462649
 O         0.621949         0.244198        -1.355618
 O        -0.475477         1.194624         0.342275
 C        -1.800185         1.481208         0.945338
 H        -3.602751         1.354446         3.217776
 H        -3.908691        -0.483224         3.146410
 H        -2.242681         0.127993         3.499832
 H        -4.192321        -1.568187         0.929641
 H        -3.159453        -0.870384        -0.427465
 H        -1.702647        -1.795517         2.105270
 H         0.201546        -1.706283         0.471914
 H        -1.050693        -2.005376        -0.697199
 H        -1.663776         2.073654         1.906863
 H        -2.264028         2.098439         0.253872
