19
Iteration:  3723charge 0 multiplicity 1
 C        -3.254174         0.268226         2.731158
 C        -2.510686         0.201447         1.483287
 C        -3.149956        -0.437838         0.312702
 C        -2.079854        -1.178476         0.914033
 C        -0.714625        -1.280943         0.252940
 C        -0.259668         0.037452        -0.360989
 O         0.297799         0.089572        -1.426032
 O        -0.552115         1.273276         0.253065
 C        -1.195224         1.085202         1.507095
 H        -3.320942        -0.739315         3.216220
 H        -2.756494         0.728128         3.569694
 H        -4.307326         0.566984         2.740979
 H        -4.173097        -0.612288         0.397811
 H        -3.008424         0.029614        -0.690322
 H        -2.456246        -1.985042         1.615523
 H         0.033600        -1.531778         1.114319
 H        -0.606626        -2.013195        -0.626371
 H        -0.576901         0.486398         2.218637
 H        -1.547433         1.967598         2.011084
