19
Iteration:   293
 C        -2.876871         0.244864         2.997188
 C        -2.517168         0.128148         1.484076
 C        -3.347448        -0.704495         0.503821
 C        -2.041826        -1.272571         1.021575
 C        -0.991748        -1.184759        -0.122747
 C        -0.166771         0.100608        -0.376313
 O         0.982673         0.106795        -0.819379
 O        -0.831619         1.310323        -0.089581
 C        -1.664315         1.280316         1.119314
 H        -3.424339         1.300357         3.193452
 H        -3.613777        -0.522192         3.179829
 H        -2.005752         0.121966         3.654589
 H        -4.350085        -1.042180         0.913982
 H        -3.466168        -0.583842        -0.556413
 H        -2.033003        -2.089674         1.650194
 H        -0.321382        -2.027776         0.016180
 H        -1.616255        -1.386786        -1.044703
 H        -0.851566         1.270392         1.902333
 H        -2.205718         2.222260         1.009303
