19
Iteration:  1909
 C        -2.922082         0.188322         2.930725
 C        -2.426449         0.003434         1.518907
 C        -3.127847        -0.614325         0.385107
 C        -1.973931        -1.274076         1.010188
 C        -0.536233        -1.150512         0.413061
 C        -0.179846         0.161451        -0.273020
 O         0.571715         0.080070        -1.221400
 O        -0.964170         1.273418        -0.077499
 C        -1.794956         1.339484         1.090328
 H        -3.458368         1.189587         3.044785
 H        -3.782411        -0.488387         3.173282
 H        -2.181008        -0.019390         3.734045
 H        -3.956012        -1.287880         0.541976
 H        -3.100556        -0.194471        -0.665245
 H        -2.175112        -2.266582         1.554059
 H         0.209913        -1.464570         1.148772
 H        -0.386200        -1.894856        -0.343905
 H        -1.450629         2.050755         1.887646
 H        -2.663868         1.913513         0.690017
