19
Iteration:  3881charge 0 multiplicity 1
 C        -3.082170         0.296037         2.932377
 C        -2.489604         0.037847         1.582621
 C        -3.132540        -0.339842         0.264276
 C        -2.079109        -1.176958         0.841427
 C        -0.769922        -1.318992         0.161682
 C        -0.246212        -0.016683        -0.337746
 O         0.521535         0.143460        -1.284364
 O        -0.771114         1.180828         0.168924
 C        -1.420933         1.183346         1.432637
 H        -3.728088        -0.538911         3.172351
 H        -2.178696         0.290520         3.603472
 H        -3.633955         1.258171         2.911390
 H        -4.155500        -0.714200         0.212262
 H        -2.765332         0.100575        -0.680788
 H        -2.448385        -2.026253         1.312548
 H        -0.035809        -1.904963         0.836389
 H        -0.873688        -1.967830        -0.692185
 H        -0.587217         1.148464         2.180176
 H        -1.717503         2.224838         1.357334
