19
Iteration:   372charge 0 multiplicity 1
 C        -2.856280         0.064578         3.042928
 C        -2.563840         0.178031         1.425182
 C        -3.418415        -0.687166         0.492084
 C        -2.094507        -1.210483         0.966261
 C        -0.772584        -1.107881         0.146980
 C        -0.165215         0.127804        -0.356656
 O         0.888191         0.000119        -1.036124
 O        -0.743123         1.296958        -0.007321
 C        -1.829914         1.427943         1.026445
 H        -1.836935        -0.397458         3.203321
 H        -3.110124         1.010147         3.616614
 H        -3.623929        -0.802772         3.144190
 H        -4.212193        -1.233465         0.876115
 H        -3.383936        -0.291168        -0.526509
 H        -2.035641        -2.090909         1.676346
 H         0.049531        -1.720290         0.712430
 H        -0.877479        -1.788866        -0.714219
 H        -1.233298         1.784712         1.964230
 H        -2.401696         2.306313         0.715010
