19
Iteration:  4063charge 0 multiplicity 1
 C        -3.290959         0.160976         2.782443
 C        -2.389254         0.056126         1.569550
 C        -2.989421        -0.275251         0.257236
 C        -1.988122        -1.205098         0.956759
 C        -0.674642        -1.279932         0.284505
 C        -0.185496         0.111026        -0.297965
 O         0.317446         0.065663        -1.420851
 O        -0.759928         1.168591         0.125627
 C        -1.377541         1.193385         1.512969
 H        -4.407197         0.190224         2.648084
 H        -3.115739        -0.541178         3.584453
 H        -3.088466         1.056634         3.445772
 H        -4.091795        -0.535510         0.451366
 H        -2.697863         0.313482        -0.622929
 H        -2.544993        -2.053001         1.200495
 H         0.149765        -1.578716         0.878552
 H        -0.621394        -1.882120        -0.631443
 H        -0.664037         1.013865         2.361880
 H        -1.853807         2.166247         1.507640
