19
Iteration:  4525charge 0 multiplicity 1
 C        -3.338685        -0.000103         2.831217
 C        -2.466200         0.162812         1.557012
 C        -3.090027        -0.365150         0.271794
 C        -1.990519        -1.128045         1.063030
 C        -0.606255        -1.155506         0.316091
 C        -0.194178         0.056813        -0.397404
 O         0.316317        -0.001355        -1.443166
 O        -0.705049         1.287208         0.102323
 C        -1.370126         1.215450         1.450221
 H        -4.028625         0.899053         2.936516
 H        -3.873199        -1.005454         2.614523
 H        -2.550492        -0.199228         3.706467
 H        -4.092262        -0.512558         0.687510
 H        -2.905343        -0.031228        -0.734503
 H        -2.243269        -2.106619         1.473131
 H         0.168973        -1.430942         1.037280
 H        -0.581753        -1.985798        -0.392192
 H        -0.456864         1.069037         2.235675
 H        -1.312700         2.336253         1.668233
