19
Iteration:   505
 C        -3.369335         0.180636         2.761921
 C        -2.462264         0.097635         1.492032
 C        -2.881299        -0.556829         0.188640
 C        -1.804879        -1.229151         0.987716
 C        -0.377595        -1.077546         0.561747
 C        -0.275174         0.071285        -0.313733
 O         0.014973        -0.036030        -1.517280
 O        -0.668708         1.272518         0.182395
 C        -1.492646         1.276490         1.367380
 H        -4.384137         0.485479         2.550285
 H        -3.455787        -0.651761         3.533806
 H        -3.101189         1.115730         3.406479
 H        -3.880348        -0.991678         0.240011
 H        -2.731953        -0.189630        -0.801446
 H        -1.940762        -2.160518         1.533718
 H         0.193377        -0.889569         1.581454
 H        -0.005820        -1.952106         0.041119
 H        -0.892548         1.203872         2.324687
 H        -2.150509         2.129293         1.279158
