19
Iteration:  2253charge 0 multiplicity 1
 C        -3.194539         0.143529         2.951663
 C        -2.557893         0.088992         1.505663
 C        -3.225851        -0.755065         0.399798
 C        -1.847889        -1.232212         1.095660
 C        -0.480232        -1.141314         0.374144
 C        -0.168967         0.113782        -0.378804
 O         0.538194         0.126405        -1.377708
 O        -0.804588         1.298137        -0.048117
 C        -1.682705         1.366338         1.195858
 H        -3.857660         0.991254         3.131654
 H        -3.737552        -0.812415         3.200680
 H        -2.326486         0.207885         3.647338
 H        -4.024514        -1.310298         0.855727
 H        -3.212288        -0.455074        -0.623723
 H        -2.066722        -2.168769         1.630009
 H         0.236444        -1.069053         1.214071
 H        -0.281002        -2.103092        -0.182909
 H        -1.144782         1.643886         2.128453
 H        -2.186429         2.316424         0.960392
