19
Iteration:   183charge 0 multiplicity 1
 C        -3.087431         0.079884         2.828337
 C        -2.513189         0.137134         1.468495
 C        -3.279938        -0.400396         0.352660
 C        -2.131172        -1.149305         0.912890
 C        -0.734998        -1.201365         0.327320
 C        -0.282094         0.074364        -0.415474
 O         0.654293         0.060260        -1.226856
 O        -0.706335         1.265610         0.076286
 C        -1.420104         1.196538         1.329435
 H        -3.216503        -1.074701         3.083355
 H        -2.325421         0.386833         3.550190
 H        -4.033175         0.597700         3.019947
 H        -4.197293        -0.814920         0.746884
 H        -3.302249         0.017493        -0.674655
 H        -2.361653        -1.887465         1.559334
 H        -0.008713        -1.297898         1.118642
 H        -0.492434        -2.080401        -0.318254
 H        -0.680412         0.970477         2.154985
 H        -1.919852         2.169054         1.407327
