19
Iteration:  3458charge 0 multiplicity 1
 C        -3.156066         0.248380         2.958023
 C        -2.472104         0.086711         1.653924
 C        -3.143312        -0.334584         0.300516
 C        -1.986682        -1.214242         0.795792
 C        -0.594801        -1.332346         0.160327
 C        -0.144142        -0.014590        -0.369996
 O         0.460301         0.135301        -1.386521
 O        -0.797065         1.121863         0.168000
 C        -1.522319         1.254106         1.438070
 H        -2.890810         1.125706         3.547451
 H        -4.286559         0.433389         2.730280
 H        -3.085011        -0.694989         3.600965
 H        -4.218702        -0.440351         0.204904
 H        -2.868530         0.370977        -0.531485
 H        -2.298060        -2.091151         1.332910
 H         0.090912        -1.590828         1.031904
 H        -0.579785        -2.193738        -0.459395
 H        -0.818314         1.495976         2.317523
 H        -2.181312         2.179129         1.366538
