19
Iteration:  2924charge 0 multiplicity 1
 C        -3.327013         0.248656         2.787696
 C        -2.428949         0.021884         1.589018
 C        -2.908335        -0.685347         0.306671
 C        -1.785206        -1.299430         1.112356
 C        -0.383600        -1.030616         0.569255
 C        -0.253553         0.160566        -0.383062
 O         0.280336         0.150197        -1.448017
 O        -0.957227         1.235769        -0.025392
 C        -1.606521         1.164745         1.268622
 H        -3.457010         1.297970         2.888317
 H        -4.241048        -0.329475         2.624102
 H        -2.790400        -0.077789         3.750588
 H        -3.978657        -0.949584         0.316267
 H        -2.622023        -0.342796        -0.675957
 H        -1.875303        -2.247948         1.753772
 H         0.306164        -0.905991         1.378551
 H        -0.079356        -1.890797         0.051473
 H        -0.752072         1.228091         2.012531
 H        -2.135096         2.114170         1.347421
