19
Iteration:  1545
 C        -2.983369         0.090352         2.990172
 C        -2.564895         0.162468         1.412906
 C        -3.190975        -0.717511         0.316819
 C        -2.013165        -1.233084         1.105562
 C        -0.571166        -1.090210         0.518270
 C        -0.224307         0.073604        -0.387822
 O         0.558730         0.098970        -1.300856
 O        -0.796635         1.234306        -0.070925
 C        -1.722396         1.387279         1.095550
 H        -3.340961         1.087487         3.291513
 H        -3.734575        -0.704046         3.187025
 H        -2.012784        -0.079059         3.549133
 H        -4.152881        -1.163068         0.627866
 H        -2.956365        -0.635675        -0.714282
 H        -2.015547        -1.987902         1.917995
 H         0.052617        -0.920416         1.464769
 H        -0.094818        -1.938473        -0.048629
 H        -1.143152         1.665978         2.096924
 H        -2.317790         2.305886         0.834061
