19
Iteration:  1706
 C        -3.226801         0.088728         2.885431
 C        -2.538853         0.169416         1.552530
 C        -2.930990        -0.473369         0.264101
 C        -1.736058        -1.114482         1.053569
 C        -0.296211        -1.149766         0.504656
 C        -0.297171         0.069327        -0.316362
 O         0.244590        -0.076392        -1.433995
 O        -0.833900         1.164317         0.119114
 C        -1.774445         1.386563         1.167095
 H        -3.798339         0.928298         3.326922
 H        -3.913891        -0.753193         2.852112
 H        -2.413933        -0.122049         3.598382
 H        -3.638941        -1.305632         0.079556
 H        -2.721972         0.012336        -0.728050
 H        -2.100124        -1.888906         1.794204
 H         0.386538        -1.102621         1.245233
 H         0.045480        -1.860733        -0.299478
 H        -1.195254         1.817880         2.039730
 H        -2.385366         2.183112         0.684816
