19
Iteration:  2750charge 0 multiplicity 1
 C        -3.010260         0.199135         3.009422
 C        -2.521792         0.042238         1.501908
 C        -3.140803        -0.620174         0.396842
 C        -1.840590        -1.241349         1.106159
 C        -0.559129        -1.250874         0.277746
 C        -0.200557         0.070927        -0.325568
 O         0.681683         0.275216        -1.133480
 O        -1.006687         1.155598        -0.183979
 C        -1.792802         1.350808         1.154550
 H        -3.583539         1.106951         2.938393
 H        -3.778191        -0.501421         3.303193
 H        -2.120788         0.190142         3.662345
 H        -4.155023        -1.085766         0.560846
 H        -2.994312        -0.264675        -0.644083
 H        -2.109112        -2.126984         1.725605
 H         0.365685        -1.750977         0.723123
 H        -0.850539        -1.839906        -0.570590
 H        -1.047306         1.626943         1.889592
 H        -2.495515         2.184129         0.926301
