19
Iteration:  4938
 C        -3.135588         0.251967         2.892753
 C        -2.423228         0.053990         1.493124
 C        -3.229645        -0.560288         0.268605
 C        -2.146856        -1.255557         0.903123
 C        -0.703477        -1.252721         0.327220
 C        -0.294461         0.159511        -0.443364
 O         0.438399         0.108340        -1.374251
 O        -0.582548         1.280419         0.210427
 C        -1.393619         1.209642         1.407586
 H        -3.701781         1.264121         2.717746
 H        -3.777150        -0.646300         3.069418
 H        -2.299407         0.418668         3.622057
 H        -4.223590        -1.007855         0.314656
 H        -3.115591        -0.212431        -0.699526
 H        -2.319054        -2.061831         1.548933
 H         0.055967        -1.333444         1.154825
 H        -0.389565        -2.015979        -0.425821
 H        -0.829759         0.987063         2.284766
 H        -1.930105         2.148679         1.730305
