19
Iteration:  2315charge 0 multiplicity 1
 C        -3.194311         0.321698         2.976714
 C        -2.364413        -0.008255         1.676465
 C        -3.104699        -0.606008         0.444286
 C        -1.819400        -1.276355         1.010749
 C        -0.549411        -1.252258         0.263270
 C        -0.219954         0.077230        -0.363260
 O         0.666986         0.329817        -1.146558
 O        -1.110342         1.091823        -0.228668
 C        -1.666161         1.285701         1.182469
 H        -3.125191         1.457143         3.002737
 H        -4.203438        -0.116901         2.893637
 H        -2.826099         0.015502         3.958759
 H        -4.082614        -1.211266         0.598149
 H        -3.091621        -0.162522        -0.551958
 H        -1.977060        -2.223624         1.521522
 H         0.351828        -1.520244         0.959263
 H        -0.396803        -1.930150        -0.591471
 H        -0.795163         1.451657         1.815394
 H        -2.502462         2.031217         0.995856
