19
Iteration:  1412
 C        -3.145813         0.332554         2.870935
 C        -2.428562         0.092937         1.585601
 C        -3.088104        -0.669186         0.410820
 C        -1.849474        -1.243777         1.031326
 C        -0.517463        -1.158739         0.421722
 C        -0.316234         0.022272        -0.492911
 O         0.451347         0.153014        -1.413804
 O        -0.713487         1.113082         0.190933
 C        -1.798815         1.312685         1.145513
 H        -4.153814         0.823317         2.712065
 H        -3.446597        -0.505788         3.517338
 H        -2.645918         1.155094         3.416509
 H        -3.928292        -1.356209         0.375387
 H        -2.874197        -0.248247        -0.558719
 H        -2.067706        -2.138421         1.614802
 H         0.277206        -1.096363         1.087464
 H        -0.300721        -2.098065        -0.118714
 H        -1.326292         1.874265         2.062719
 H        -2.364386         2.098673         0.668671
