19
Iteration:  1417
 C        -3.154805         0.339850         2.856636
 C        -2.461797         0.039764         1.597138
 C        -3.084148        -0.670355         0.416035
 C        -1.836131        -1.264819         1.081274
 C        -0.537668        -1.144017         0.387522
 C        -0.341028         0.063529        -0.457004
 O         0.475900         0.122252        -1.396077
 O        -0.723597         1.140873         0.142136
 C        -1.766354         1.321118         1.155579
 H        -4.117478         0.752731         2.589245
 H        -3.370496        -0.529190         3.487594
 H        -2.674415         1.128500         3.461220
 H        -4.054334        -1.200296         0.381011
 H        -2.917607        -0.102356        -0.530148
 H        -1.936768        -2.223520         1.622769
 H         0.395414        -1.029266         1.089507
 H        -0.384531        -2.046708        -0.212065
 H        -1.203384         1.700271         1.947811
 H        -2.349921         2.149017         0.669048
