19
Iteration:  1032charge 0 multiplicity 1
 C        -2.560832         0.340519         3.007005
 C        -2.473825         0.000249         1.541198
 C        -3.439116        -0.853103         0.731102
 C        -2.034308        -1.312289         0.935298
 C        -0.979762        -1.170890        -0.103388
 C        -0.142195         0.175974        -0.284325
 O         0.971901         0.218801        -0.772288
 O        -0.701491         1.383087         0.176464
 C        -2.102242         1.185123         0.514021
 H        -3.199446         1.222654         3.219009
 H        -3.050084        -0.538753         3.498935
 H        -1.502840         0.542804         3.385166
 H        -4.077485        -1.481832         1.436849
 H        -3.898676        -0.479312        -0.185629
 H        -1.752803        -2.154044         1.650752
 H        -0.276185        -1.958990        -0.012730
 H        -1.458753        -1.266295        -1.083290
 H        -2.379328         2.133588         0.895543
 H        -2.684024         1.009108        -0.448344
