19
Iteration:  1206charge 0 multiplicity 1
 C        -3.080474         0.258477         3.038275
 C        -2.405824         0.053925         1.524614
 C        -3.168879        -0.662998         0.450189
 C        -1.979294        -1.316016         0.967005
 C        -0.573359        -1.272463         0.387758
 C        -0.255886         0.087656        -0.381073
 O         0.557894         0.084740        -1.317559
 O        -0.648404         1.322890         0.045417
 C        -1.845831         1.392301         1.060002
 H        -3.791013         1.008974         2.829687
 H        -3.709248        -0.562128         3.284570
 H        -2.445053         0.631154         3.812652
 H        -4.134354        -1.114917         0.574292
 H        -3.058500        -0.229241        -0.592976
 H        -2.109778        -2.149498         1.621660
 H         0.146516        -1.500526         1.251819
 H        -0.265181        -1.962838        -0.481844
 H        -1.491279         2.023334         1.807715
 H        -2.730054         1.879260         0.573038
