19
Iteration:  1175charge 0 multiplicity 1
 C        -2.996772         0.285800         2.797354
 C        -2.585770         0.186863         1.378428
 C        -3.226112        -0.880048         0.529305
 C        -1.876463        -1.212058         1.168421
 C        -0.674565        -1.199258         0.226231
 C        -0.223035         0.107064        -0.369406
 O         0.551968         0.137032        -1.324868
 O        -0.567107         1.220253         0.299312
 C        -1.845634         1.358541         1.003473
 H        -3.399391         1.256348         2.949375
 H        -3.822520        -0.386147         3.032412
 H        -2.145847         0.195545         3.487423
 H        -4.079810        -1.276998         1.011142
 H        -3.195943        -0.934076        -0.580296
 H        -1.768270        -1.765827         2.109056
 H         0.103119        -1.682626         0.784300
 H        -0.972916        -1.776909        -0.664849
 H        -1.505190         1.826294         1.914004
 H        -2.581898         2.103760         0.453217
