19
Iteration:  4802charge 0 multiplicity 1
 C        -3.183311         0.170628         2.867498
 C        -2.439269         0.135615         1.471011
 C        -3.093641        -0.482142         0.232523
 C        -2.105018        -1.323275         0.925098
 C        -0.679562        -1.238892         0.375228
 C        -0.271486         0.092053        -0.382121
 O         0.323959         0.138457        -1.489480
 O        -0.540802         1.283540         0.261021
 C        -1.408951         1.207871         1.427795
 H        -3.726065         1.239372         2.855391
 H        -4.056979        -0.480794         3.175369
 H        -2.559509         0.327400         3.800726
 H        -4.114507        -0.973409         0.419379
 H        -3.004695        -0.158604        -0.824942
 H        -2.483691        -2.239507         1.527613
 H         0.006591        -1.451804         1.193247
 H        -0.579020        -2.085148        -0.335238
 H        -0.788541         1.154813         2.282868
 H        -1.805141         2.213230         1.438796
