19
Iteration:  1332charge 0 multiplicity 1
 C        -3.270127         0.268485         2.791035
 C        -2.503206         0.146838         1.463127
 C        -3.053277        -0.771187         0.449965
 C        -1.781218        -1.204443         1.208276
 C        -0.553287        -1.241772         0.383772
 C        -0.238257         0.084216        -0.393893
 O         0.287805         0.148805        -1.470232
 O        -0.589399         1.243417         0.225759
 C        -1.669344         1.339416         1.089965
 H        -3.483664         1.341650         2.941909
 H        -4.171111        -0.350782         2.844444
 H        -2.680935        -0.185837         3.580546
 H        -3.902841        -1.376843         0.751996
 H        -2.970109        -0.540123        -0.658803
 H        -1.901960        -1.980337         1.975757
 H         0.319977        -1.357570         1.015192
 H        -0.617694        -2.101706        -0.236569
 H        -1.347661         1.832300         2.083202
 H        -2.351087         2.026102         0.593442
