19
Iteration:  4676
 C        -3.044655         0.122094         2.970867
 C        -2.487352         0.046877         1.579351
 C        -3.215300        -0.269211         0.283780
 C        -2.093214        -1.189216         0.893302
 C        -0.666277        -1.223840         0.292023
 C        -0.192017         0.033792        -0.477241
 O         0.630317         0.157393        -1.308609
 O        -0.799235         1.162499         0.075565
 C        -1.578105         1.133944         1.390017
 H        -3.270288         1.204895         3.282845
 H        -4.029612        -0.293905         3.269918
 H        -2.293441        -0.076248         3.795060
 H        -4.152306        -0.896963         0.292384
 H        -3.081610         0.423382        -0.546183
 H        -2.370068        -2.174480         1.430542
 H        -0.036662        -1.527629         1.152532
 H        -0.622850        -2.088450        -0.378729
 H        -0.744431         1.395676         2.055004
 H        -2.130851         2.096816         1.073068
