19
Iteration:  1233
 C        -3.126834         0.112886         2.969421
 C        -2.554607         0.114649         1.555876
 C        -3.160806        -0.528034         0.373350
 C        -1.921979        -1.064416         1.067565
 C        -0.518606        -1.138922         0.435832
 C        -0.197149         0.016373        -0.420935
 O         0.604044         0.069368        -1.339744
 O        -0.920615         1.122239        -0.057407
 C        -1.625808         1.314140         1.168695
 H        -4.116838         0.679335         2.886583
 H        -3.320234        -0.897666         3.423887
 H        -2.482659         0.734639         3.638702
 H        -4.025886        -1.198916         0.366734
 H        -3.071081         0.091892        -0.499223
 H        -2.118726        -2.043890         1.569997
 H         0.185841        -1.171195         1.222494
 H        -0.243652        -1.979151        -0.130489
 H        -0.856839         1.713475         1.952148
 H        -2.377491         2.118504         1.006359
