19
Iteration:   834
 C        -2.445854         0.483373         2.901328
 C        -2.527147         0.050688         1.448576
 C        -3.425762        -1.004568         0.876510
 C        -1.918111        -1.222240         0.821032
 C        -1.041003        -1.142703        -0.412132
 C        -0.142622         0.102309        -0.223559
 O         0.998822         0.228387        -0.591755
 O        -0.759711         1.216763         0.295039
 C        -2.235751         1.223108         0.588556
 H        -3.031678         1.477200         2.923816
 H        -2.867555        -0.370191         3.510085
 H        -1.365852         0.534800         3.321932
 H        -4.020146        -1.621914         1.576763
 H        -4.009363        -0.756587        -0.035367
 H        -1.531998        -1.940748         1.513086
 H        -0.278941        -1.903893        -0.610128
 H        -1.546246        -0.887324        -1.309856
 H        -2.226514         2.197014         1.080598
 H        -2.857188         1.306363        -0.303903
