19
Iteration:  2975
 C        -3.438371         0.124366         2.716026
 C        -2.449053         0.075959         1.513494
 C        -3.029544        -0.755185         0.416261
 C        -1.701260        -1.183163         1.285432
 C        -0.442268        -1.110119         0.467966
 C        -0.249671         0.147587        -0.417455
 O         0.275724         0.153857        -1.527429
 O        -0.788391         1.297880         0.054198
 C        -1.554236         1.251156         1.297903
 H        -3.756631         1.186983         2.668081
 H        -4.249235        -0.630201         2.652247
 H        -2.921229        -0.054684         3.658980
 H        -3.939543        -1.325842         0.372363
 H        -2.757014        -0.369868        -0.606555
 H        -1.796216        -1.907579         2.067045
 H         0.492344        -1.085903         1.124251
 H        -0.232348        -2.036044        -0.177799
 H        -0.844635         1.314219         2.136660
 H        -2.186739         2.116554         1.202581
