19
Iteration:  2333charge 0 multiplicity 1
 C        -3.081531         0.330437         2.965936
 C        -2.530748         0.020084         1.606129
 C        -3.194073        -0.629671         0.518263
 C        -1.962242        -1.304553         1.056860
 C        -0.481149        -1.200301         0.312156
 C        -0.147548         0.131763        -0.468837
 O         0.804942         0.362371        -1.215706
 O        -1.097620         1.084672        -0.114864
 C        -1.703814         1.163671         1.105692
 H        -3.222124         1.410876         3.008993
 H        -4.044163        -0.192703         3.028876
 H        -2.319217        -0.060049         3.684997
 H        -4.258687        -1.034155         0.661006
 H        -3.214529        -0.080261        -0.428180
 H        -2.104119        -2.224340         1.666724
 H         0.316258        -1.369927         0.942597
 H        -0.525356        -2.029138        -0.354295
 H        -1.020484         1.458630         1.977811
 H        -2.470225         1.869943         0.830560
