19
Iteration:  3570
 C        -3.240954         0.194741         3.016945
 C        -2.460875         0.050010         1.706049
 C        -3.106800        -0.191704         0.366935
 C        -2.103871        -1.186236         0.913947
 C        -0.756941        -1.308102         0.150352
 C        -0.191910         0.006850        -0.524284
 O         0.655025         0.189559        -1.360497
 O        -0.762329         1.053679         0.119993
 C        -1.484456         1.154718         1.333152
 H        -4.275081         0.427500         2.666721
 H        -3.216956        -0.625984         3.772247
 H        -2.954628         1.149705         3.575203
 H        -4.194097        -0.483543         0.445168
 H        -2.815098         0.518903        -0.467902
 H        -2.431022        -2.191019         1.278726
 H         0.059556        -1.320811         0.908853
 H        -0.662076        -2.261609        -0.444752
 H        -0.559034         1.126392         2.050019
 H        -1.840819         2.155803         1.391216
