19
Iteration:   239charge 0 multiplicity 1
 C        -2.966395         0.119185         3.059979
 C        -2.517153         0.058142         1.632860
 C        -3.352136        -0.382465         0.453732
 C        -2.052498        -1.220086         0.909912
 C        -0.811578        -1.250766        -0.036247
 C        -0.181279         0.022542        -0.406457
 O         0.925647         0.130181        -0.948292
 O        -0.863250         1.154599        -0.085407
 C        -1.656677         1.333958         1.124453
 H        -4.117607        -0.012558         3.347406
 H        -2.475028        -0.534075         3.779864
 H        -2.736524         1.143603         3.417720
 H        -4.402498        -0.741153         0.377703
 H        -3.099945         0.160847        -0.431752
 H        -2.194615        -1.989626         1.555309
 H        -0.067452        -1.814661         0.518549
 H        -1.056656        -1.843492        -0.948689
 H        -0.941298         1.674788         1.957992
 H        -2.204577         2.266125         0.998190
