19
Iteration:  3997
 C        -3.054963         0.130190         2.896427
 C        -2.475588         0.102684         1.461552
 C        -3.229125        -0.374388         0.217194
 C        -2.081248        -1.248333         0.878691
 C        -0.731743        -1.330427         0.234199
 C        -0.217733         0.093916        -0.294294
 O         0.405849         0.037916        -1.307694
 O        -0.592905         1.321375         0.200899
 C        -1.462904         1.259843         1.420650
 H        -4.150273        -0.092751         2.810891
 H        -2.411290        -0.385979         3.587760
 H        -2.918212         1.214612         3.139083
 H        -4.233910        -0.786897         0.438611
 H        -3.273372         0.248055        -0.688140
 H        -2.423666        -2.127158         1.389634
 H        -0.180341        -1.670482         1.046883
 H        -0.539660        -2.030285        -0.602945
 H        -0.664396         1.061666         2.182189
 H        -1.930483         2.256623         1.520738
