19
Iteration:  2092charge 0 multiplicity 1
 C        -3.272531         0.127972         2.908876
 C        -2.494365         0.135830         1.516252
 C        -2.934730        -0.713316         0.206201
 C        -1.833106        -1.207452         1.089796
 C        -0.355152        -1.035452         0.626174
 C        -0.225142         0.097111        -0.370096
 O         0.243382         0.057488        -1.455245
 O        -0.922283         1.249447        -0.019582
 C        -1.532694         1.310405         1.221457
 H        -3.535621         1.122316         3.229298
 H        -4.214197        -0.437772         2.658619
 H        -2.739046        -0.430785         3.713126
 H        -3.951834        -1.124482         0.467014
 H        -2.859713        -0.223777        -0.766834
 H        -2.009402        -2.124271         1.729327
 H         0.276879        -0.980944         1.636131
 H        -0.026156        -1.899912         0.007098
 H        -0.973975         1.378822         2.149882
 H        -2.101519         2.266772         1.264336
