19
Iteration:  2639
 C        -3.364839         0.332450         2.815031
 C        -2.349183        -0.024333         1.680196
 C        -3.002669        -0.612477         0.449653
 C        -1.812009        -1.287594         1.121869
 C        -0.478881        -1.199077         0.344987
 C        -0.164852         0.140669        -0.382930
 O         0.447524         0.229898        -1.424232
 O        -0.918154         1.141350        -0.013421
 C        -1.655035         1.214997         1.260085
 H        -3.757307         1.349189         2.762181
 H        -4.272963        -0.292477         2.963391
 H        -2.914317         0.430262         3.860364
 H        -4.092241        -0.992748         0.448750
 H        -2.730622        -0.213592        -0.610244
 H        -2.002060        -2.183156         1.663177
 H         0.488320        -1.497452         0.925024
 H        -0.532273        -1.869011        -0.523643
 H        -1.006537         1.761364         1.961193
 H        -2.478634         1.825661         0.972517
