19
Iteration:   933
 C        -2.161923         0.488513         2.921067
 C        -2.432842         0.064768         1.362861
 C        -3.414662        -1.107176         0.938644
 C        -1.901968        -1.256262         0.762791
 C        -1.206774        -1.004926        -0.606795
 C        -0.205007         0.149266        -0.234732
 O         0.953452         0.037302        -0.077238
 O        -0.825464         1.342444         0.095872
 C        -2.281001         1.240147         0.476120
 H        -3.065698         1.030438         3.334711
 H        -2.021557        -0.400854         3.615200
 H        -1.218069         1.150415         2.864020
 H        -3.939159        -1.737028         1.663679
 H        -3.962170        -0.811416        -0.026297
 H        -1.292339        -1.952731         1.408738
 H        -0.680048        -1.928010        -0.873826
 H        -1.974547        -0.770337        -1.319180
 H        -2.556878         2.132968         1.011027
 H        -2.834948         1.354153        -0.484367
