19
Iteration:  2062
 C        -3.191821        -0.056608         2.878569
 C        -2.490234         0.169624         1.501006
 C        -3.048472        -0.616253         0.365820
 C        -1.882836        -1.237404         1.083115
 C        -0.437983        -1.002568         0.605795
 C        -0.308657         0.096191        -0.456857
 O         0.431121        -0.055829        -1.447312
 O        -0.780235         1.324708         0.011383
 C        -1.700607         1.395334         1.169944
 H        -3.566361         0.887453         3.251549
 H        -3.899345        -0.851526         2.763686
 H        -2.490918        -0.369732         3.642536
 H        -4.025257        -0.940296         0.806702
 H        -3.072674        -0.121351        -0.574858
 H        -1.923209        -2.168646         1.762579
 H         0.233734        -0.627389         1.386775
 H        -0.049197        -1.821847         0.088333
 H        -1.198502         1.646316         2.125966
 H        -2.457636         2.121243         0.828176
