19
Iteration:   977charge 0 multiplicity 1
 C        -2.411208         0.380594         2.830937
 C        -2.513245         0.133517         1.400520
 C        -3.338806        -1.177725         1.050233
 C        -1.839329        -1.136555         0.896780
 C        -1.218510        -0.983980        -0.581770
 C        -0.216249         0.174184        -0.320236
 O         1.022062        -0.003743        -0.319709
 O        -0.735802         1.319752         0.257960
 C        -2.244940         1.329008         0.416707
 H        -2.825378         1.381143         3.127782
 H        -3.125602        -0.313149         3.374998
 H        -1.373313         0.132329         3.291721
 H        -3.752401        -1.663586         1.996296
 H        -3.879419        -1.489988         0.123498
 H        -1.098032        -1.644656         1.631624
 H        -0.672524        -1.889421        -0.851975
 H        -1.927104        -0.752418        -1.348721
 H        -2.439425         2.311028         0.776041
 H        -2.842142         1.283642        -0.524060
