19
Iteration:  1098charge 0 multiplicity 1
 C        -2.926408         0.429391         2.973599
 C        -2.505056         0.107171         1.451917
 C        -3.304078        -0.926679         0.627078
 C        -1.924539        -1.323984         1.011567
 C        -0.796799        -1.213824         0.030316
 C        -0.191944         0.143436        -0.311268
 O         0.656334         0.256613        -1.163798
 O        -0.556197         1.215782         0.370281
 C        -1.865166         1.257573         0.762734
 H        -3.900394         0.939478         3.015502
 H        -2.970902        -0.317929         3.790831
 H        -2.195112         1.243828         3.256645
 H        -4.133301        -1.526216         0.998979
 H        -3.448396        -0.642906        -0.444986
 H        -1.884907        -1.953138         1.910392
 H        -0.010889        -1.830094         0.418429
 H        -1.088269        -1.617227        -0.949296
 H        -2.022413         2.167469         1.266847
 H        -2.523412         1.340175        -0.212209
