19
Iteration:  4917charge 0 multiplicity 1
 C        -3.213908         0.172640         2.809451
 C        -2.538799         0.130040         1.424466
 C        -3.154069        -0.471551         0.283832
 C        -2.028691        -1.178002         0.985056
 C        -0.683820        -1.212609         0.372391
 C        -0.237782         0.045957        -0.349166
 O         0.338576         0.117404        -1.407392
 O        -0.614832         1.260611         0.147221
 C        -1.338546         1.153321         1.443133
 H        -3.949343         1.005959         3.010818
 H        -3.647456        -0.840027         2.930722
 H        -2.342859         0.224513         3.492862
 H        -4.208751        -0.592233         0.525856
 H        -2.952192        -0.153077        -0.687037
 H        -2.182482        -2.068338         1.532916
 H         0.209782        -1.425122         1.043107
 H        -0.587775        -1.943419        -0.475082
 H        -0.568898         0.938092         2.251769
 H        -1.767156         2.168639         1.789430
