19
Iteration:  4601charge 0 multiplicity 1
 C        -3.206205         0.203330         2.973209
 C        -2.477306         0.088077         1.559909
 C        -3.261250        -0.480743         0.361115
 C        -2.020540        -1.207755         0.907112
 C        -0.695178        -1.219148         0.159173
 C        -0.222680         0.028463        -0.481953
 O         0.573848         0.136917        -1.331277
 O        -0.683473         1.252698         0.162780
 C        -1.468917         1.192130         1.374417
 H        -3.928786         1.078410         2.847027
 H        -3.704737        -0.689130         3.458617
 H        -2.455505         0.608021         3.753578
 H        -4.101344        -1.093086         0.683706
 H        -3.102132        -0.000945        -0.569746
 H        -2.297716        -2.169411         1.381240
 H         0.094750        -1.501912         0.821242
 H        -0.788143        -2.027606        -0.555165
 H        -0.747557         1.085354         2.142238
 H        -1.746564         2.263493         1.381894
