19
Iteration:  3867
 C        -3.040592         0.318829         2.929914
 C        -2.445094         0.085720         1.516623
 C        -3.198685        -0.254221         0.245746
 C        -2.089850        -1.238731         0.877588
 C        -0.661809        -1.363587         0.192953
 C        -0.157192         0.025135        -0.355836
 O         0.503154         0.141366        -1.344841
 O        -0.773570         1.093014         0.207622
 C        -1.520018         1.171462         1.444477
 H        -3.994582        -0.102264         3.331065
 H        -2.426956         0.140373         3.820002
 H        -3.350937         1.386966         2.900912
 H        -4.164318        -0.710030         0.317428
 H        -3.159911         0.531545        -0.553303
 H        -2.463948        -2.244150         1.121881
 H         0.181314        -1.799613         0.824548
 H        -0.693243        -1.965771        -0.761895
 H        -0.844262         1.106440         2.319817
 H        -2.154578         2.002539         1.545756
