19
Iteration:  1499
 C        -3.207645         0.309998         2.992120
 C        -2.461017         0.019141         1.632859
 C        -3.127851        -0.628700         0.385645
 C        -1.923511        -1.250972         0.987804
 C        -0.491640        -1.203437         0.413041
 C        -0.157923         0.132610        -0.336586
 O         0.609673         0.133712        -1.289042
 O        -1.064246         1.154355        -0.156278
 C        -1.583285         1.290138         1.154014
 H        -3.410177         1.405144         3.064651
 H        -4.084097        -0.312224         3.201083
 H        -2.373549         0.096468         3.672612
 H        -4.063938        -1.061369         0.448568
 H        -2.869978        -0.000526        -0.460529
 H        -2.044853        -2.221455         1.479249
 H         0.393522        -1.231222         1.170968
 H        -0.383146        -2.059401        -0.330571
 H        -0.844257         1.766653         1.939938
 H        -2.378720         2.015355         1.073325
