19
Iteration:  2079charge 0 multiplicity 1
 C        -3.209118         0.004562         2.836742
 C        -2.446843         0.066323         1.545040
 C        -3.072316        -0.649462         0.315429
 C        -1.857782        -1.156556         1.139759
 C        -0.462604        -1.025023         0.633749
 C        -0.258802         0.084061        -0.392834
 O         0.314169         0.033952        -1.461960
 O        -0.797789         1.307267        -0.063174
 C        -1.635704         1.346795         1.229703
 H        -3.561474         0.969717         3.273404
 H        -4.196759        -0.554813         2.714444
 H        -2.611509        -0.520147         3.633534
 H        -3.948872        -1.240044         0.094023
 H        -2.624407        -0.306930        -0.650155
 H        -2.009708        -2.009921         1.777549
 H         0.255658        -0.578415         1.426832
 H         0.034003        -2.032437         0.391019
 H        -0.782397         1.577057         1.872350
 H        -2.268296         2.226749         1.055523
