19
Iteration:  3683charge 0 multiplicity 1
 C        -3.350346         0.200207         2.840922
 C        -2.402249         0.180312         1.658654
 C        -3.065919        -0.216502         0.353345
 C        -2.030169        -1.218811         0.866939
 C        -0.685823        -1.373488         0.172947
 C        -0.282922         0.023852        -0.427562
 O         0.319833         0.058625        -1.457492
 O        -0.517627         1.175677         0.257250
 C        -1.395526         1.204682         1.511768
 H        -3.285619        -0.853898         3.226305
 H        -2.920940         0.836325         3.608266
 H        -4.356403         0.449476         2.487543
 H        -4.108175        -0.667390         0.342730
 H        -2.698558         0.235526        -0.538551
 H        -2.413178        -2.203957         1.319839
 H         0.011309        -1.673729         0.911174
 H        -0.788042        -2.057986        -0.670714
 H        -0.695147         1.410540         2.348974
 H        -1.781213         2.209266         1.335000
