19
Iteration:  1623
 C        -3.336929         0.449125         2.815050
 C        -2.469504         0.024439         1.582955
 C        -3.006620        -0.720203         0.318431
 C        -1.769674        -1.310439         1.257707
 C        -0.449862        -1.209655         0.374201
 C        -0.250529         0.091333        -0.417181
 O         0.432754         0.222964        -1.411037
 O        -0.954286         1.185072        -0.006419
 C        -1.582639         1.222080         1.279590
 H        -4.197059         1.033680         2.488291
 H        -3.699421        -0.470411         3.330374
 H        -2.700439         1.059944         3.521895
 H        -4.056120        -0.907341         0.546790
 H        -2.748633        -0.312316        -0.706678
 H        -1.795014        -2.275272         1.725500
 H         0.480511        -1.493321         1.038492
 H        -0.485492        -1.970659        -0.426617
 H        -0.749494         1.069550         2.047310
 H        -2.083243         2.214193         1.467859
