19
Iteration:  4842charge 0 multiplicity 1
 C        -3.243170         0.154020         2.812965
 C        -2.502712         0.130299         1.489835
 C        -3.071984        -0.405897         0.234712
 C        -1.998040        -1.157982         0.869595
 C        -0.572071        -1.243570         0.439770
 C        -0.302210         0.051378        -0.381384
 O         0.252832         0.053286        -1.471723
 O        -0.646145         1.223904         0.193040
 C        -1.360544         1.228447         1.525005
 H        -3.653160         1.083008         2.996970
 H        -4.013888        -0.598641         2.770070
 H        -2.528583        -0.128626         3.542131
 H        -4.030459        -0.820124         0.520359
 H        -3.054492        -0.023202        -0.748438
 H        -2.294562        -1.990108         1.470064
 H         0.132724        -1.213125         1.285584
 H        -0.218218        -1.989718        -0.288462
 H        -0.522283         0.900880         2.241024
 H        -1.682588         2.302100         1.665702
