19
Iteration:  3724
 C        -3.260696         0.276145         2.742370
 C        -2.506374         0.205366         1.482226
 C        -3.152191        -0.444438         0.311855
 C        -2.076301        -1.190401         0.894853
 C        -0.708450        -1.276554         0.248862
 C        -0.252642         0.031219        -0.348948
 O         0.297704         0.087718        -1.431836
 O        -0.557131         1.272043         0.257285
 C        -1.199248         1.091053         1.504552
 H        -3.337870        -0.738113         3.236597
 H        -2.733529         0.728362         3.554990
 H        -4.307853         0.591915         2.727956
 H        -4.205923        -0.599987         0.418416
 H        -3.025232         0.063157        -0.640837
 H        -2.470755        -1.989496         1.608453
 H         0.023615        -1.486180         1.113763
 H        -0.594410        -2.019073        -0.619491
 H        -0.556040         0.494236         2.220366
 H        -1.529519         1.933212         2.025595
