19
Iteration:  4025
 C        -3.340706         0.066622         2.900704
 C        -2.517337         0.197437         1.580320
 C        -3.213568        -0.383122         0.324303
 C        -2.064063        -1.149222         0.984901
 C        -0.706798        -1.154130         0.256179
 C        -0.263382         0.032727        -0.495934
 O         0.520879         0.116465        -1.446270
 O        -0.537376         1.129507         0.149161
 C        -1.354735         1.181999         1.472975
 H        -4.355965        -0.067391         2.598688
 H        -2.885532        -0.849130         3.328212
 H        -3.208599         0.960926         3.471528
 H        -4.163486        -0.763896         0.556015
 H        -3.367015         0.288351        -0.519318
 H        -2.256722        -2.121050         1.564307
 H         0.015414        -1.236116         1.174711
 H        -0.484656        -2.089651        -0.285181
 H        -0.541900         1.237194         2.150478
 H        -1.714491         2.234338         1.315414
