19
Iteration:  4227
 C        -3.176563         0.173276         2.907488
 C        -2.482164         0.080633         1.484831
 C        -3.373517        -0.400162         0.433455
 C        -2.208533        -1.281477         0.913163
 C        -0.762715        -1.214205         0.191126
 C        -0.167603         0.056220        -0.465352
 O         0.675399         0.203270        -1.319495
 O        -0.601641         1.283752         0.145364
 C        -1.401285         1.065336         1.398160
 H        -3.193201        -0.839445         3.358787
 H        -2.651485         0.877317         3.574739
 H        -4.196739         0.585328         2.699936
 H        -4.371759        -0.805905         0.739210
 H        -3.344054         0.364225        -0.462521
 H        -2.601031        -2.281250         1.228810
 H         0.020659        -1.381250         1.059047
 H        -0.507437        -2.065704        -0.511334
 H        -0.651247         0.878501         2.192180
 H        -1.567193         2.161520         1.437377
