19
Iteration:  1018
 C        -2.548607         0.409065         2.962515
 C        -2.458062         0.017271         1.497863
 C        -3.469232        -0.935424         0.853595
 C        -1.987048        -1.312102         0.956274
 C        -1.009612        -1.078893        -0.288216
 C        -0.106277         0.171118        -0.306176
 O         1.098392         0.202475        -0.680443
 O        -0.793551         1.301669         0.152369
 C        -2.149743         1.167264         0.623408
 H        -2.869672         1.437002         2.933172
 H        -3.137209        -0.163260         3.644625
 H        -1.598979         0.441717         3.443793
 H        -4.347550        -1.390518         1.373157
 H        -3.744320        -0.590105        -0.166830
 H        -1.900284        -2.184488         1.633101
 H        -0.341602        -1.986363        -0.541620
 H        -1.670870        -1.005321        -1.221862
 H        -2.515915         2.177866         1.035810
 H        -2.743848         0.977437        -0.356245
