19
Iteration:  3610charge 0 multiplicity 1
 C        -3.072225         0.063496         2.873987
 C        -2.433756         0.215824         1.448133
 C        -3.187907        -0.315384         0.238692
 C        -2.144934        -1.178710         0.899748
 C        -0.809070        -1.179062         0.273198
 C        -0.239881         0.040695        -0.321476
 O         0.437267        -0.024438        -1.316329
 O        -0.705423         1.299711         0.141921
 C        -1.296084         1.164907         1.459897
 H        -4.014332        -0.388283         2.672882
 H        -2.548624        -0.672765         3.522701
 H        -3.355288         1.030358         3.250990
 H        -4.146197        -0.872607         0.428186
 H        -2.891081        -0.048475        -0.754904
 H        -2.275734        -1.931957         1.641625
 H        -0.105950        -1.548754         1.101203
 H        -0.775904        -1.779747        -0.617342
 H        -0.615330         0.855436         2.224145
 H        -1.537389         2.253443         1.740213
