19
Iteration:   493
 C        -3.355383         0.210158         2.710225
 C        -2.448769         0.083495         1.465561
 C        -2.890225        -0.590090         0.205764
 C        -1.886905        -1.278849         1.133426
 C        -0.486684        -1.089595         0.602794
 C        -0.355119         0.091486        -0.393721
 O         0.133241         0.054657        -1.487808
 O        -0.732313         1.291506         0.113474
 C        -1.407697         1.225314         1.386430
 H        -4.435603         0.111858         2.522959
 H        -3.010983        -0.737672         3.199889
 H        -2.961044         1.085856         3.324222
 H        -3.899518        -0.978397         0.281410
 H        -2.540545        -0.248075        -0.716457
 H        -2.195779        -2.237210         1.644409
 H         0.289972        -0.854480         1.481554
 H        -0.085624        -1.988797         0.140572
 H        -0.591676         1.282111         2.174914
 H        -1.789569         2.240946         1.490134
