19
Iteration:  1154charge 0 multiplicity 1
 C        -3.201438         0.348971         2.929396
 C        -2.575684         0.169339         1.381346
 C        -3.257652        -1.049171         0.642606
 C        -1.814819        -1.114185         1.216027
 C        -0.790025        -1.292843         0.092296
 C        -0.196437         0.051155        -0.440694
 O         0.628150         0.260502        -1.350267
 O        -0.446530         1.171925         0.335500
 C        -1.797853         1.465933         0.924006
 H        -3.667871         1.288443         3.253448
 H        -3.911244        -0.494339         3.072141
 H        -2.284139         0.152458         3.553250
 H        -4.086492        -1.587069         1.017084
 H        -3.219338        -0.808489        -0.419237
 H        -1.755994        -1.925072         1.918319
 H         0.091701        -1.675571         0.519012
 H        -1.132956        -1.905140        -0.707276
 H        -1.654047         2.059860         1.839038
 H        -2.422052         2.068290         0.145572
