19
Iteration:  4240
 C        -3.125707         0.145718         2.943905
 C        -2.479627         0.051704         1.578931
 C        -3.327427        -0.387249         0.340685
 C        -2.166243        -1.244955         0.789234
 C        -0.796678        -1.250495         0.177856
 C        -0.186339         0.117276        -0.437583
 O         0.668037         0.122862        -1.295228
 O        -0.670756         1.243053         0.147055
 C        -1.373044         1.239686         1.403798
 H        -3.376972        -0.789584         3.460366
 H        -2.552334         0.760349         3.712439
 H        -4.125045         0.628951         2.818902
 H        -4.367760        -0.676906         0.528251
 H        -3.183074        -0.148362        -0.730631
 H        -2.266348        -2.166224         1.448472
 H        -0.118971        -1.479602         1.069230
 H        -0.702048        -2.057902        -0.550065
 H        -0.648501         0.971132         2.194887
 H        -1.906411         2.085217         1.739331
