19
Iteration:  3856charge 0 multiplicity 1
 C        -3.129642         0.334749         2.973296
 C        -2.518221         0.018413         1.555609
 C        -3.250184        -0.253430         0.325026
 C        -2.054299        -1.218632         0.798055
 C        -0.601591        -1.320638         0.202094
 C        -0.195303        -0.000434        -0.374115
 O         0.504473         0.139234        -1.379129
 O        -0.704302         1.128644         0.218436
 C        -1.486815         1.122845         1.388829
 H        -4.144777        -0.110414         2.979308
 H        -2.467819        -0.224613         3.604038
 H        -3.105448         1.417144         3.241296
 H        -4.279507        -0.450302         0.551706
 H        -3.077332         0.469343        -0.501635
 H        -2.444641        -2.141830         1.247855
 H         0.004043        -1.677711         1.090327
 H        -0.445134        -2.096318        -0.586808
 H        -0.787883         1.335641         2.214893
 H        -1.979887         2.028993         1.191328
