19
Iteration:   377charge 0 multiplicity 1
 C        -2.845231         0.053258         2.980264
 C        -2.605359         0.189873         1.445794
 C        -3.376510        -0.711837         0.465126
 C        -2.068783        -1.205219         0.957456
 C        -0.767434        -1.154776         0.184651
 C        -0.146689         0.140928        -0.354925
 O         0.861509        -0.018485        -1.059918
 O        -0.759292         1.305464        -0.004835
 C        -1.811869         1.465842         1.095474
 H        -1.944695        -0.427978         3.314396
 H        -2.895225         0.993366         3.533685
 H        -3.720093        -0.553925         3.159273
 H        -4.292794        -1.286578         0.861699
 H        -3.417366        -0.331540        -0.555555
 H        -2.011294        -2.055278         1.619787
 H        -0.013814        -1.639690         0.708976
 H        -0.879404        -1.774550        -0.717952
 H        -1.315755         1.858964         1.930218
 H        -2.434981         2.329593         0.786407
