19
Iteration:  2418charge 0 multiplicity 1
 C        -3.191972         0.203836         2.988015
 C        -2.522439         0.121855         1.657411
 C        -3.120090        -0.643067         0.489882
 C        -1.790205        -1.191512         1.028146
 C        -0.493105        -1.237787         0.281970
 C        -0.140299         0.040688        -0.370319
 O         0.563946         0.225511        -1.333888
 O        -0.823637         1.122586        -0.012609
 C        -1.870996         1.354821         1.066838
 H        -4.081284         0.759540         2.989224
 H        -3.521590        -0.710473         3.479172
 H        -2.605378         0.687955         3.780993
 H        -4.002454        -1.300512         0.683808
 H        -3.120126        -0.109674        -0.418193
 H        -2.013665        -2.210486         1.410760
 H         0.483169        -1.426437         0.855780
 H        -0.468555        -2.009641        -0.570191
 H        -1.306231         1.841746         1.857569
 H        -2.416501         2.160193         0.657874
