19
Iteration:  1666
 C        -3.306038         0.185802         2.774988
 C        -2.455956         0.110220         1.485531
 C        -3.133621        -0.742932         0.432652
 C        -1.905319        -1.318115         1.162157
 C        -0.423079        -1.045189         0.563581
 C        -0.277661         0.145434        -0.432527
 O         0.370201         0.071391        -1.468901
 O        -0.819141         1.344243        -0.002658
 C        -1.455278         1.225438         1.218019
 H        -4.015993         1.005955         2.798080
 H        -3.880256        -0.751778         2.718387
 H        -2.624631         0.228226         3.658884
 H        -4.141695        -1.026388         0.712448
 H        -2.810524        -0.349407        -0.567503
 H        -2.040176        -2.095928         1.879315
 H         0.320476        -0.758067         1.477391
 H        -0.067009        -1.983370         0.094422
 H        -0.691249         1.315998         1.983696
 H        -2.148921         2.075636         1.212584
