19
Iteration:   904
 C        -2.110929         0.342193         2.917823
 C        -2.383202         0.058322         1.401058
 C        -3.545797        -0.852841         0.967656
 C        -2.045177        -1.224317         0.690096
 C        -1.028215        -1.072912        -0.488231
 C        -0.211396         0.106354        -0.172110
 O         1.054976         0.205889        -0.110198
 O        -0.921115         1.228202        -0.049170
 C        -2.286035         1.219212         0.497492
 H        -3.032407         0.544250         3.430465
 H        -1.553679        -0.522215         3.286683
 H        -1.408231         1.138627         3.187952
 H        -4.069262        -1.621676         1.610054
 H        -4.234134        -0.503979         0.215103
 H        -1.724193        -2.181108         1.264313
 H        -0.542049        -2.027573        -0.453098
 H        -1.542537        -0.998878        -1.461995
 H        -2.547924         2.164435         1.004727
 H        -2.905855         1.193065        -0.374673
