19
Iteration:  2469charge 0 multiplicity 1
 C        -3.269356         0.260202         2.691905
 C        -2.381591         0.082814         1.458335
 C        -3.080832        -0.898061         0.428860
 C        -1.840499        -1.312438         1.167177
 C        -0.588772        -1.170286         0.403610
 C        -0.364985         0.198050        -0.377902
 O         0.352794         0.122764        -1.313190
 O        -0.815984         1.442062        -0.005864
 C        -1.427943         1.232298         1.264662
 H        -3.918759         1.201538         2.817371
 H        -4.066448        -0.496685         2.926854
 H        -2.652271         0.261600         3.589132
 H        -3.976654        -1.346353         0.664027
 H        -2.930182        -0.771572        -0.622619
 H        -1.711542        -1.880211         2.089130
 H         0.318018        -1.127191         0.987013
 H        -0.430228        -1.930567        -0.343424
 H        -0.596097         1.151421         2.031423
 H        -1.945065         2.233555         1.407000
