19
Iteration:    39
 C        -3.363209         0.102278         2.720398
 C        -2.434894         0.101173         1.556424
 C        -2.900979        -0.358590         0.174394
 C        -1.919180        -1.187765         0.995330
 C        -0.526828        -1.223246         0.486526
 C        -0.251728         0.067317        -0.309572
 O         0.056980         0.066933        -1.469978
 O        -0.614762         1.228460         0.211805
 C        -1.401517         1.209547         1.402333
 H        -4.397452        -0.214105         2.372473
 H        -3.056562        -0.517370         3.625097
 H        -3.521245         1.161109         3.094063
 H        -3.964328        -0.655696        -0.075394
 H        -2.398494         0.196462        -0.600570
 H        -2.220466        -2.107199         1.570871
 H         0.228671        -1.424562         1.273707
 H        -0.341242        -2.117566        -0.160285
 H        -0.649104         1.262062         2.272919
 H        -1.942190         2.198269         1.335489
