19
Iteration:  1922charge 0 multiplicity 1
 C        -3.041989         0.195140         2.930254
 C        -2.412489         0.096733         1.605164
 C        -3.132494        -0.700886         0.363294
 C        -1.826340        -1.278232         1.048071
 C        -0.595452        -1.198681         0.321224
 C        -0.237402         0.108248        -0.330593
 O         0.602503         0.122181        -1.177302
 O        -0.981581         1.225596        -0.086339
 C        -1.791642         1.394291         1.101902
 H        -3.454447         1.260928         3.082823
 H        -3.734872        -0.648229         3.082068
 H        -2.230639         0.149236         3.680956
 H        -4.191324        -0.913879         0.455587
 H        -2.757779        -0.167900        -0.525955
 H        -2.013995        -2.227626         1.636516
 H         0.307539        -1.381827         1.058144
 H        -0.526059        -1.875451        -0.579966
 H        -1.046250         1.754510         1.841665
 H        -2.597613         2.121463         0.902684
