19
Iteration:  4791charge 0 multiplicity 1
 C        -3.260000         0.263897         2.883289
 C        -2.415091         0.022791         1.544799
 C        -3.157526        -0.436976         0.284549
 C        -2.032164        -1.258781         0.914863
 C        -0.627439        -1.295207         0.282647
 C        -0.283650         0.042561        -0.425279
 O         0.323287         0.132814        -1.421836
 O        -0.567689         1.236391         0.257694
 C        -1.395608         1.262743         1.413781
 H        -3.957056         1.206313         2.876609
 H        -3.841200        -0.700633         2.829957
 H        -2.547506         0.157641         3.751802
 H        -4.276337        -0.613591         0.445832
 H        -2.869439         0.032859        -0.673281
 H        -2.270599        -2.289936         1.344899
 H         0.151913        -1.291444         1.038657
 H        -0.355558        -2.048787        -0.482211
 H        -0.797698         1.325554         2.291181
 H        -2.026906         2.138813         1.307884
