19
Iteration:  4594
 C        -3.183772         0.267961         2.993275
 C        -2.495579         0.062441         1.581257
 C        -3.269548        -0.514896         0.343914
 C        -2.040470        -1.157431         0.936027
 C        -0.630457        -1.279681         0.143452
 C        -0.239966         0.052489        -0.398262
 O         0.560120         0.176072        -1.370087
 O        -0.672150         1.197714         0.145940
 C        -1.472101         1.187064         1.370836
 H        -3.914588         0.991076         2.658785
 H        -3.639450        -0.613963         3.399195
 H        -2.456938         0.700954         3.636150
 H        -4.275702        -0.959374         0.462042
 H        -3.256433         0.192997        -0.525595
 H        -2.254517        -2.193515         1.045178
 H         0.178131        -1.583597         0.896418
 H        -0.688834        -2.092587        -0.622405
 H        -0.719148         1.044079         2.297578
 H        -1.952561         2.156392         1.580298
