19
Iteration:  2168charge 0 multiplicity 1
 C        -3.425691         0.118896         2.686365
 C        -2.432295         0.163930         1.500208
 C        -3.016566        -0.771063         0.409622
 C        -1.782651        -1.132337         1.155769
 C        -0.399953        -1.096646         0.487127
 C        -0.311263         0.193586        -0.443309
 O         0.220456         0.041720        -1.512706
 O        -0.696473         1.286153         0.119079
 C        -1.510992         1.262237         1.337468
 H        -4.445878         0.283617         2.387815
 H        -3.537791        -0.880784         3.216263
 H        -3.087120         0.892339         3.429595
 H        -4.013851        -1.234127         0.653907
 H        -3.003146        -0.653535        -0.667796
 H        -1.833955        -1.863166         2.020490
 H         0.501343        -1.202810         1.134062
 H        -0.307685        -1.921041        -0.212199
 H        -0.882667         1.217555         2.240325
 H        -1.983432         2.295481         1.376006
