19
Iteration:  2760charge 0 multiplicity 1
 C        -3.078876         0.196248         2.914158
 C        -2.469762         0.094772         1.554897
 C        -3.122713        -0.775322         0.412736
 C        -1.873274        -1.290265         1.124262
 C        -0.650508        -1.205347         0.251594
 C        -0.214512         0.136454        -0.341441
 O         0.717008         0.207682        -1.117160
 O        -1.050816         1.245589        -0.160469
 C        -1.685420         1.383765         1.118029
 H        -3.435834         1.121654         3.197813
 H        -3.741644        -0.614840         3.193438
 H        -2.240100         0.162679         3.646670
 H        -4.159294        -1.179429         0.689055
 H        -3.103451        -0.482975        -0.647591
 H        -1.879427        -2.134849         1.838805
 H         0.258075        -1.673909         0.660286
 H        -0.837484        -1.758825        -0.655937
 H        -0.875201         1.578980         1.850937
 H        -2.267396         2.287497         1.143611
