19
Iteration:  3769charge 0 multiplicity 1
 C        -3.213716         0.241289         2.884765
 C        -2.459901         0.045408         1.598529
 C        -3.025636        -0.176999         0.285418
 C        -2.061999        -1.262595         0.890737
 C        -0.664156        -1.308735         0.309657
 C        -0.264545         0.029980        -0.414215
 O         0.361938         0.126806        -1.477224
 O        -0.664357         1.118454         0.206991
 C        -1.409287         1.171359         1.434164
 H        -4.137830        -0.393607         2.999006
 H        -2.740574         0.089260         3.839316
 H        -3.686581         1.232617         2.837362
 H        -4.121728        -0.400576         0.095518
 H        -2.743782         0.437733        -0.545717
 H        -2.297262        -2.287413         1.309660
 H        -0.005114        -1.300494         1.266399
 H        -0.377543        -2.254843        -0.249783
 H        -0.834938         0.948520         2.391177
 H        -1.784905         2.160526         1.395101
