19
Iteration:  3707charge 0 multiplicity 1
 C        -3.287580         0.129271         2.797628
 C        -2.398003         0.213633         1.463660
 C        -3.131653        -0.341089         0.181234
 C        -2.049160        -1.200360         1.087347
 C        -0.812775        -1.252188         0.301329
 C        -0.320401         0.062044        -0.402002
 O         0.341435         0.102949        -1.459182
 O        -0.534608         1.210252         0.260608
 C        -1.249940         1.117151         1.509790
 H        -3.318606        -0.862375         3.254641
 H        -2.771799         0.879859         3.469860
 H        -4.258761         0.494371         2.436035
 H        -4.241278        -0.675996         0.369514
 H        -2.740302        -0.150500        -0.825468
 H        -2.426403        -1.996835         1.693815
 H         0.080044        -1.570208         0.796125
 H        -1.111715        -1.923291        -0.448119
 H        -0.497052         0.850493         2.249865
 H        -1.387827         2.241725         1.800950
