19
Iteration:  2329charge 0 multiplicity 1
 C        -3.110641         0.336383         2.962636
 C        -2.477113        -0.002744         1.631289
 C        -3.188501        -0.626066         0.484268
 C        -1.939824        -1.288844         1.082617
 C        -0.467528        -1.202749         0.266173
 C        -0.166609         0.128227        -0.438229
 O         0.777655         0.361093        -1.203599
 O        -1.107404         1.077927        -0.123933
 C        -1.695434         1.134945         1.094226
 H        -3.308349         1.396063         3.049622
 H        -4.153508        -0.032139         3.048673
 H        -2.417639        -0.054211         3.690887
 H        -4.116642        -0.942236         0.730577
 H        -3.141986        -0.003796        -0.407801
 H        -2.180308        -2.247193         1.564836
 H         0.386605        -1.391429         1.041677
 H        -0.551810        -2.125695        -0.439357
 H        -1.004416         1.688154         1.857863
 H        -2.446971         1.973359         0.991386
