19
Iteration:  4760charge 0 multiplicity 1
 C        -3.345127         0.152767         2.890664
 C        -2.405249         0.114299         1.711552
 C        -3.085838        -0.355754         0.301339
 C        -1.942521        -1.167165         0.979941
 C        -0.677400        -1.316810         0.217825
 C        -0.183754        -0.008576        -0.419314
 O         0.461482         0.118500        -1.497780
 O        -0.715430         1.181824         0.181152
 C        -1.423206         1.329062         1.426962
 H        -4.140626         0.936430         2.845766
 H        -3.743667        -0.863931         2.862789
 H        -2.840717         0.119134         3.849686
 H        -4.174642        -0.685609         0.490389
 H        -2.879918         0.106504        -0.688028
 H        -2.461864        -2.122185         1.324886
 H         0.144870        -1.847888         0.774804
 H        -0.908026        -1.995498        -0.631208
 H        -0.827748         1.449952         2.341191
 H        -2.098034         2.164065         1.475316
