19
Iteration:  3076charge 0 multiplicity 1
 C        -3.213858         0.092073         2.917970
 C        -2.527683         0.107167         1.538508
 C        -3.163422        -0.590567         0.425599
 C        -1.843726        -1.184696         1.077903
 C        -0.481172        -1.158151         0.390721
 C        -0.213596         0.121925        -0.456343
 O         0.644089         0.169167        -1.275111
 O        -1.040540         1.242933        -0.125065
 C        -1.608117         1.234792         1.232457
 H        -4.067762        -0.520629         3.062094
 H        -2.411633        -0.313877         3.558721
 H        -3.334193         1.167812         3.240260
 H        -4.037932        -1.121259         0.744000
 H        -3.103689        -0.278971        -0.616634
 H        -2.023848        -2.151514         1.626768
 H         0.360862        -1.241266         1.187416
 H        -0.249024        -1.965303        -0.287818
 H        -0.737486         1.311047         1.956325
 H        -2.200958         2.093497         1.287998
