19
Iteration:  2287charge 0 multiplicity 1
 C        -3.191928         0.145193         2.849490
 C        -2.437027         0.098273         1.517314
 C        -3.097552        -0.702244         0.429617
 C        -1.803354        -1.186098         1.245342
 C        -0.593005        -1.196668         0.287489
 C        -0.286281         0.125395        -0.399024
 O         0.648271         0.179455        -1.173833
 O        -1.083287         1.236044        -0.191189
 C        -1.577045         1.333340         1.224903
 H        -3.325337         1.156261         3.169068
 H        -4.155439        -0.414064         2.812520
 H        -2.432518        -0.333531         3.496013
 H        -4.043192        -0.980476         0.681550
 H        -3.064300        -0.609276        -0.663753
 H        -1.890519        -2.091263         1.878182
 H         0.349642        -1.288465         0.785086
 H        -0.516561        -1.935603        -0.538162
 H        -0.724561         1.288728         1.963914
 H        -2.169805         2.197039         1.279284
