19
Iteration:  3028charge 0 multiplicity 1
 C        -3.086593         0.127758         2.822569
 C        -2.459525         0.091137         1.459280
 C        -3.074057        -0.645799         0.312379
 C        -1.814144        -1.281148         1.033289
 C        -0.407189        -1.141222         0.570015
 C        -0.277095         0.114947        -0.329408
 O         0.352781         0.100924        -1.402984
 O        -0.822622         1.322404         0.075919
 C        -1.770299         1.299807         1.206907
 H        -4.220459         0.291779         2.787201
 H        -2.968671        -0.754927         3.476633
 H        -2.648259         0.957054         3.328906
 H        -3.979354        -1.229057         0.540213
 H        -3.016067        -0.079925        -0.644754
 H        -2.243032        -2.147081         1.471076
 H         0.403185        -1.252644         1.349505
 H        -0.169169        -1.985751        -0.186292
 H        -1.165342         1.535816         2.107921
 H        -2.571946         2.146027         0.985279
