19
Iteration:  1543
 C        -2.981770         0.098780         2.975204
 C        -2.565377         0.155085         1.416099
 C        -3.203540        -0.707647         0.319127
 C        -2.003080        -1.234876         1.097332
 C        -0.557370        -1.100545         0.515080
 C        -0.230750         0.063453        -0.400020
 O         0.556855         0.104062        -1.289826
 O        -0.812126         1.239367        -0.065394
 C        -1.715049         1.386679         1.113114
 H        -3.276328         1.127745         3.254610
 H        -3.715582        -0.674765         3.259782
 H        -2.032690        -0.092979         3.511705
 H        -4.125660        -1.165777         0.568037
 H        -2.976211        -0.634519        -0.719315
 H        -2.007944        -1.986729         1.906980
 H         0.026745        -0.943396         1.550511
 H        -0.050287        -1.970035        -0.037675
 H        -1.129763         1.723281         2.042313
 H        -2.311815         2.229319         0.791506
