19
Iteration:  2867
 C        -3.107632        -0.042483         2.884504
 C        -2.448017         0.099522         1.551534
 C        -3.066294        -0.684176         0.308760
 C        -1.921946        -1.188269         1.071627
 C        -0.528725        -1.101555         0.546732
 C        -0.214981         0.156238        -0.360217
 O         0.454623         0.050619        -1.357221
 O        -0.894683         1.310756        -0.013471
 C        -1.657287         1.405654         1.142945
 H        -4.084404         0.472019         2.858908
 H        -3.405274        -1.035935         3.354243
 H        -2.405538         0.495813         3.605367
 H        -4.011192        -1.189136         0.453341
 H        -2.904866        -0.163764        -0.715569
 H        -1.968640        -2.069071         1.692099
 H         0.259603        -1.105376         1.244245
 H        -0.415123        -1.977894        -0.144137
 H        -1.060314         2.017420         1.922509
 H        -2.389016         2.073852         0.792886
