19
Iteration:  3901charge 0 multiplicity 1
 C        -3.169322         0.104854         2.923486
 C        -2.433539         0.158774         1.535697
 C        -3.198011        -0.327949         0.314035
 C        -2.124565        -1.268905         1.011482
 C        -0.835909        -1.242378         0.165550
 C        -0.298151         0.046786        -0.441007
 O         0.607816         0.041554        -1.252785
 O        -0.699154         1.290362         0.078969
 C        -1.324504         1.214273         1.407284
 H        -3.541458        -0.915181         2.934149
 H        -2.556263         0.518211         3.716531
 H        -4.044869         0.808205         2.890492
 H        -4.213911        -0.573409         0.539664
 H        -3.030249         0.040712        -0.743722
 H        -2.493679        -2.055945         1.578239
 H         0.194159        -1.476959         0.665112
 H        -0.902361        -1.971514        -0.643813
 H        -0.559789         0.877645         2.153305
 H        -1.539151         2.250914         1.581869
