19
Iteration:   692charge 0 multiplicity 1
 C        -2.855589         0.072893         3.046407
 C        -2.509014         0.137317         1.538114
 C        -3.317274        -0.648362         0.419657
 C        -2.049310        -1.240541         0.996838
 C        -0.654102        -1.152297         0.369161
 C        -0.213489         0.068454        -0.414987
 O         0.831780         0.151930        -1.075460
 O        -0.877864         1.255377        -0.165172
 C        -1.850645         1.361529         0.999073
 H        -3.605438         0.803620         3.307159
 H        -3.013399        -0.997573         3.244324
 H        -1.966858         0.238122         3.750950
 H        -4.252709        -1.190482         0.692304
 H        -3.425552        -0.158481        -0.543360
 H        -2.084175        -2.076227         1.610840
 H         0.091903        -1.241762         1.237486
 H        -0.603972        -1.979555        -0.313952
 H        -1.184024         1.913845         1.695077
 H        -2.582116         2.024725         0.601955
