19
Iteration:  1497charge 0 multiplicity 1
 C        -3.219363         0.303323         2.988401
 C        -2.451933         0.034823         1.625829
 C        -3.119754        -0.640216         0.388426
 C        -1.928744        -1.248950         1.026121
 C        -0.501826        -1.212505         0.407010
 C        -0.166725         0.102577        -0.350579
 O         0.633410         0.148509        -1.303452
 O        -1.071163         1.163901        -0.160051
 C        -1.578036         1.297728         1.171259
 H        -3.445638         1.385404         3.037260
 H        -4.061508        -0.355653         3.190680
 H        -2.431936         0.079634         3.674469
 H        -4.105168        -1.089304         0.427128
 H        -2.896174         0.073845        -0.422668
 H        -2.057940        -2.217242         1.471770
 H         0.438295        -1.183468         1.160486
 H        -0.425685        -2.060965        -0.307751
 H        -0.848825         1.681339         1.912193
 H        -2.330626         2.078702         1.075839
