19
Iteration:  2363charge 0 multiplicity 1
 C        -2.959454         0.147322         2.980651
 C        -2.558013         0.119459         1.491662
 C        -3.273386        -0.860406         0.420770
 C        -1.942366        -1.176473         0.990886
 C        -0.583461        -1.139403         0.351707
 C        -0.230049         0.156204        -0.341486
 O         0.699650         0.137720        -1.104812
 O        -0.986365         1.307617        -0.154307
 C        -1.633401         1.336318         1.041448
 H        -3.491679         1.042635         3.238933
 H        -3.454315        -0.791678         3.263554
 H        -2.053822         0.194851         3.633703
 H        -4.070617        -1.367605         0.896203
 H        -3.521181        -0.461523        -0.541831
 H        -2.001091        -2.033159         1.694706
 H         0.245879        -1.258305         1.129847
 H        -0.419665        -2.033083        -0.385448
 H        -0.947087         1.467621         1.944116
 H        -2.302067         2.163152         0.924369
