19
Iteration:  1076
 C        -2.683158         0.310048         2.906082
 C        -2.642900         0.153224         1.375793
 C        -3.388016        -0.925065         0.677744
 C        -1.949701        -1.117136         1.045341
 C        -0.794542        -1.271735         0.055161
 C        -0.154492         0.102254        -0.346141
 O         0.833785         0.238389        -1.115212
 O        -0.592554         1.163141         0.425372
 C        -2.126903         1.371662         0.666700
 H        -3.681953         0.578916         3.278517
 H        -2.498815        -0.679436         3.380650
 H        -1.931567         1.099433         3.221670
 H        -4.048241        -1.588122         1.283524
 H        -3.656002        -0.743838        -0.382916
 H        -2.039325        -1.885788         1.855554
 H         0.081841        -1.693869         0.471723
 H        -1.152696        -1.816144        -0.819785
 H        -2.200776         2.108882         1.401558
 H        -2.600365         1.758828        -0.315778
