19
Iteration:  1947
 C        -3.207654         0.197582         2.886925
 C        -2.520623         0.194310         1.604257
 C        -3.173170        -0.752845         0.488178
 C        -1.812043        -1.141209         1.186486
 C        -0.621338        -1.263856         0.256628
 C        -0.241026         0.059903        -0.485234
 O         0.716251         0.276408        -1.219830
 O        -0.995375         1.188684        -0.135952
 C        -1.564734         1.292304         1.199820
 H        -3.933564         1.001295         2.927907
 H        -3.635733        -0.800937         2.982373
 H        -2.497224         0.358245         3.703122
 H        -4.005362        -1.419063         0.826298
 H        -3.002663        -0.585372        -0.542944
 H        -2.092022        -2.034895         1.649634
 H         0.399640        -1.475741         0.782838
 H        -0.864097        -2.096547        -0.490716
 H        -0.770627         1.434323         1.925297
 H        -2.205671         2.190249         1.168551
