19
Iteration:  3848charge 0 multiplicity 1
 C        -3.162173         0.242552         2.948380
 C        -2.473449         0.068394         1.646353
 C        -3.259967        -0.275372         0.351043
 C        -2.109355        -1.218736         0.765270
 C        -0.652524        -1.282898         0.242171
 C        -0.186369        -0.000920        -0.412734
 O         0.490051         0.129892        -1.367830
 O        -0.626001         1.138145         0.168357
 C        -1.467738         1.173918         1.354524
 H        -4.216352        -0.022779         2.916777
 H        -2.611047        -0.266994         3.798209
 H        -2.998156         1.288985         3.282993
 H        -4.237894        -0.717362         0.398034
 H        -3.016780         0.233347        -0.627284
 H        -2.402422        -2.111546         1.187931
 H         0.078151        -1.366513         1.144922
 H        -0.569790        -2.111935        -0.425037
 H        -0.899642         1.163049         2.326935
 H        -1.968532         2.172401         1.332068
