19
Iteration:  1976
 C        -3.281625         0.269457         2.846180
 C        -2.469349         0.127051         1.590402
 C        -3.216546        -0.717688         0.607224
 C        -1.846636        -1.309599         1.115489
 C        -0.557254        -1.181413         0.250413
 C        -0.158391         0.213486        -0.379983
 O         0.655740         0.199081        -1.261119
 O        -1.014505         1.274806        -0.177824
 C        -1.484394         1.146760         1.214156
 H        -4.271199         0.781926         2.476438
 H        -3.585073        -0.669379         3.347815
 H        -2.818096         0.899093         3.633697
 H        -4.087339        -1.339241         0.951367
 H        -3.205546        -0.663757        -0.468602
 H        -1.982258        -2.229536         1.850074
 H         0.402073        -1.637483         0.621088
 H        -0.601213        -1.728148        -0.697371
 H        -0.630915         1.384613         1.898650
 H        -2.069682         2.088313         1.366356
