19
Iteration:  4013
 C        -3.180020         0.104778         2.828988
 C        -2.485370         0.133969         1.518244
 C        -3.291101        -0.379518         0.357609
 C        -2.125673        -1.163043         0.892767
 C        -0.703948        -1.183467         0.309426
 C        -0.178434         0.050038        -0.407435
 O         0.480438         0.065793        -1.427636
 O        -0.579936         1.240009         0.211441
 C        -1.365206         1.192693         1.386865
 H        -4.229429        -0.140319         2.753630
 H        -2.834062        -0.707795         3.533525
 H        -3.175734         0.923764         3.550382
 H        -4.302374        -0.686485         0.589958
 H        -3.000559        -0.114538        -0.662935
 H        -2.334887        -2.045585         1.544634
 H         0.141294        -1.403409         1.058563
 H        -0.710610        -1.942201        -0.467960
 H        -0.857650         1.042101         2.332072
 H        -1.900479         2.157580         1.470904
