19
Iteration:  4972charge 0 multiplicity 1
 C        -3.188552         0.213331         2.908455
 C        -2.444493         0.070076         1.614388
 C        -3.191722        -0.382052         0.396205
 C        -1.984213        -1.179066         0.893184
 C        -0.658359        -1.349276         0.228141
 C        -0.212333         0.021950        -0.387559
 O         0.526598         0.164298        -1.394061
 O        -0.686957         1.181212         0.161851
 C        -1.565786         1.238382         1.336482
 H        -3.776338         1.182841         3.031697
 H        -4.019442        -0.542261         3.009636
 H        -2.653228         0.047717         3.865379
 H        -4.095316        -0.965700         0.468216
 H        -2.876465         0.150226        -0.454232
 H        -2.447889        -1.922846         1.505199
 H         0.177377        -1.761310         0.858965
 H        -0.742203        -1.866564        -0.776487
 H        -0.788660         1.324407         2.017665
 H        -2.020706         2.261339         1.205593
