19
Iteration:  4941
 C        -3.136988         0.277036         2.896740
 C        -2.424613         0.011856         1.492531
 C        -3.243247        -0.556003         0.271046
 C        -2.124056        -1.239149         0.871491
 C        -0.708581        -1.238847         0.333234
 C        -0.288198         0.147460        -0.452829
 O         0.449443         0.107945        -1.372308
 O        -0.584000         1.263714         0.204496
 C        -1.426607         1.204090         1.430454
 H        -3.643816         1.182610         2.784737
 H        -3.782593        -0.568415         3.135395
 H        -2.369873         0.399076         3.634256
 H        -4.286529        -0.905593         0.441336
 H        -3.032988        -0.220323        -0.775732
 H        -2.285856        -2.084500         1.585268
 H         0.091460        -1.326507         1.131949
 H        -0.407915        -1.952471        -0.506451
 H        -0.677232         1.129570         2.361993
 H        -1.984084         2.159869         1.663930
