19
Iteration:  4288charge 0 multiplicity 1
 C        -3.136954         0.015303         2.931390
 C        -2.411098         0.167620         1.572382
 C        -3.123705        -0.317508         0.284482
 C        -2.107850        -1.187759         0.929539
 C        -0.771759        -1.342419         0.154466
 C        -0.213961         0.027541        -0.364317
 O         0.616885         0.130268        -1.271598
 O        -0.774765         1.176709         0.078602
 C        -1.441153         1.362630         1.390284
 H        -4.035743        -0.646617         2.974994
 H        -2.510325        -0.456653         3.735491
 H        -3.518232         0.918529         3.430170
 H        -4.191145        -0.425930         0.338391
 H        -2.924643         0.238336        -0.640472
 H        -2.424853        -2.064304         1.450226
 H        -0.045879        -1.669472         0.835164
 H        -0.886475        -2.069391        -0.647741
 H        -0.924249         1.566432         2.320200
 H        -2.285153         2.031505         1.397957
