19
Iteration:  1067
 C        -2.636153         0.219354         2.869312
 C        -2.613137         0.204675         1.366580
 C        -3.404788        -0.878131         0.720425
 C        -1.937270        -1.156703         0.997034
 C        -0.808334        -1.238136         0.081694
 C        -0.129098         0.130226        -0.380814
 O         0.864748         0.195619        -1.046697
 O        -0.664069         1.199349         0.428942
 C        -2.163861         1.372242         0.614152
 H        -3.596023         0.655390         3.316719
 H        -2.356667        -0.741308         3.417173
 H        -1.775079         0.902467         3.281600
 H        -3.964419        -1.546820         1.294346
 H        -3.954578        -0.706705        -0.205528
 H        -1.892362        -1.798120         1.876312
 H        -0.140762        -1.916603         0.492620
 H        -1.108156        -1.790732        -0.756635
 H        -2.193518         2.275321         1.180738
 H        -2.663526         1.549377        -0.328725
