19
Iteration:  3785
 C        -3.265872         0.129326         2.879740
 C        -2.384219         0.181360         1.558663
 C        -3.079963        -0.281397         0.202725
 C        -2.092299        -1.136019         0.919735
 C        -0.626880        -1.307639         0.323937
 C        -0.276337        -0.053609        -0.361584
 O         0.346903         0.073947        -1.426528
 O        -0.703955         1.188029         0.182726
 C        -1.337233         1.224878         1.492363
 H        -4.142602        -0.474866         2.723487
 H        -2.587709        -0.376557         3.624778
 H        -3.429204         1.119416         3.329248
 H        -4.090334        -0.568832         0.273272
 H        -2.682258         0.174641        -0.760360
 H        -2.542884        -2.014848         1.347637
 H         0.176879        -1.606165         0.931952
 H        -0.641417        -2.051888        -0.444983
 H        -0.493970         1.319992         2.123329
 H        -1.863745         2.240628         1.454080
