19
Iteration:  3155
 C        -3.054511         0.206919         2.926487
 C        -2.424159         0.071747         1.529169
 C        -3.061529        -0.629977         0.246513
 C        -1.849308        -1.249095         1.107110
 C        -0.669136        -1.254994         0.228419
 C        -0.224474         0.055943        -0.296248
 O         0.517890         0.199126        -1.210381
 O        -0.843917         1.228058         0.036737
 C        -1.802454         1.360380         1.199387
 H        -2.299592        -0.230188         3.646022
 H        -3.223286         1.228844         3.235040
 H        -4.001503        -0.347036         3.202253
 H        -4.047626        -1.090562         0.564911
 H        -2.914668        -0.217366        -0.755899
 H        -2.035049        -2.262009         1.459491
 H         0.230198        -1.681948         0.800143
 H        -0.680336        -1.851339        -0.691712
 H        -1.055218         1.796854         1.916163
 H        -2.491335         2.129139         1.003024
