19
Iteration:   333
 C        -2.886068         0.224277         3.022731
 C        -2.361066         0.073728         1.574380
 C        -3.340492        -0.480467         0.601318
 C        -2.046980        -1.265000         0.823504
 C        -0.823972        -1.330499        -0.098282
 C        -0.155069         0.022080        -0.318771
 O         0.944964         0.172168        -0.911836
 O        -0.851020         1.162918         0.033839
 C        -1.878376         1.399637         0.962532
 H        -2.453212         0.981439         3.604916
 H        -3.971965         0.348708         3.144820
 H        -2.688051        -0.669308         3.591573
 H        -4.262715        -0.930208         1.106146
 H        -3.538181        -0.058787        -0.394980
 H        -2.208557        -2.161018         1.497791
 H        -0.072252        -1.951431         0.279432
 H        -0.990077        -1.635036        -1.140905
 H        -1.467546         1.906345         1.791822
 H        -2.688877         2.118535         0.655674
