19
Iteration:  3064
 C        -3.090273         0.116337         2.941411
 C        -2.457068         0.052737         1.572090
 C        -3.023390        -0.645403         0.279640
 C        -1.893957        -1.184836         1.048112
 C        -0.561788        -1.070444         0.431060
 C        -0.272195         0.122345        -0.382289
 O         0.570917         0.167063        -1.277059
 O        -1.024935         1.157414        -0.076447
 C        -1.636950         1.292786         1.208244
 H        -4.083631        -0.230899         2.783402
 H        -2.638265        -0.480540         3.760065
 H        -3.308779         1.134813         3.336640
 H        -3.961642        -1.250929         0.332774
 H        -2.980330        -0.099522        -0.616407
 H        -2.057099        -2.060345         1.721451
 H         0.318166        -1.173919         1.184871
 H        -0.520636        -1.928549        -0.250467
 H        -0.867189         1.516425         2.010827
 H        -2.174166         2.217249         1.095339
