19
Iteration:  4166charge 0 multiplicity 1
 C        -3.158372         0.033799         2.841916
 C        -2.392231         0.062570         1.604139
 C        -3.008632        -0.228191         0.200462
 C        -2.029885        -1.182354         1.001780
 C        -0.779620        -1.281489         0.232708
 C        -0.299137         0.022494        -0.337294
 O         0.369650         0.122054        -1.320586
 O        -0.649078         1.187457         0.199433
 C        -1.413238         1.250400         1.367808
 H        -3.568563        -0.942292         3.139558
 H        -2.769457         0.718861         3.697606
 H        -4.053720         0.610768         2.484266
 H        -4.060105        -0.297279         0.172806
 H        -2.675529         0.219839        -0.699664
 H        -2.589650        -2.083767         1.414267
 H         0.098648        -1.596776         0.726744
 H        -0.782737        -1.818472        -0.693716
 H        -0.795862         1.055010         2.287521
 H        -2.114199         2.090452         1.366166
