19
Iteration:   253
 C        -2.992798         0.133754         3.029398
 C        -2.466523         0.202043         1.515041
 C        -3.370985        -0.537523         0.544688
 C        -2.097628        -1.156955         0.856453
 C        -0.863979        -1.303267        -0.053655
 C        -0.169461         0.059825        -0.403651
 O         0.940652         0.108329        -0.886373
 O        -0.865651         1.222563        -0.113069
 C        -1.590827         1.335422         1.190024
 H        -4.051751         0.086394         2.998579
 H        -2.584100        -0.854654         3.430665
 H        -2.659667         0.997123         3.694169
 H        -4.141821        -0.967776         1.157720
 H        -3.622476        -0.147215        -0.435319
 H        -2.182822        -2.139927         1.477293
 H        -0.008916        -1.883089         0.442866
 H        -1.005045        -1.836493        -0.976772
 H        -0.810613         1.507640         1.974063
 H        -2.256446         2.186806         0.979426
