19
Iteration:   537charge 0 multiplicity 1
 C        -3.380459         0.142616         2.696432
 C        -2.443893         0.116075         1.468972
 C        -2.927123        -0.473740         0.229974
 C        -1.695776        -1.201542         1.009125
 C        -0.251126        -1.130555         0.613561
 C        -0.241456         0.011805        -0.320018
 O        -0.170848        -0.023455        -1.507372
 O        -0.554763         1.242688         0.292189
 C        -1.633873         1.314929         1.246483
 H        -4.054954         0.990064         2.497457
 H        -3.997143        -0.783223         2.912402
 H        -2.733482         0.227696         3.637180
 H        -3.798389        -1.061994         0.448564
 H        -2.779817         0.027804        -0.670365
 H        -1.999148        -2.180863         1.410055
 H         0.476373        -0.973797         1.533712
 H         0.159145        -1.990180         0.106090
 H        -1.265312         1.777719         2.211491
 H        -2.282345         2.136387         0.908234
