19
Iteration:  3431
 C        -3.138873         0.153267         2.832966
 C        -2.480767         0.056649         1.538046
 C        -3.139555        -0.434371         0.212401
 C        -2.048673        -1.245460         0.999325
 C        -0.697014        -1.181986         0.353443
 C        -0.325281         0.084833        -0.393527
 O         0.431497         0.114060        -1.324812
 O        -0.715177         1.298951         0.109047
 C        -1.317514         1.146861         1.386984
 H        -2.360564         0.600862         3.539628
 H        -4.076336         0.679628         2.827615
 H        -3.425181        -0.771474         3.304141
 H        -4.267098        -0.507661         0.349010
 H        -2.899980         0.011579        -0.716681
 H        -2.477482        -2.253455         1.295550
 H         0.147350        -1.352781         1.093091
 H        -0.768220        -2.094712        -0.331554
 H        -0.522790         1.045181         2.156799
 H        -1.800232         2.117313         1.663896
