19
Iteration:   498
 C        -3.362879         0.205449         2.748709
 C        -2.463627         0.079966         1.456717
 C        -2.862727        -0.561457         0.212466
 C        -1.849783        -1.274303         1.082807
 C        -0.442191        -1.073497         0.584379
 C        -0.320479         0.090353        -0.373297
 O         0.075651         0.016376        -1.483727
 O        -0.702986         1.276598         0.141498
 C        -1.431444         1.246680         1.380378
 H        -4.455592         0.269185         2.607653
 H        -3.212300        -0.753010         3.270933
 H        -3.044613         1.087894         3.274652
 H        -3.882581        -0.966075         0.268981
 H        -2.660999        -0.234741        -0.884968
 H        -2.005871        -2.203743         1.567349
 H         0.104753        -0.878203         1.455221
 H        -0.080730        -2.005909         0.113460
 H        -0.720756         1.246341         2.212352
 H        -1.976650         2.228551         1.366664
