19
Iteration:   695charge 0 multiplicity 1
 C        -2.844219         0.097817         3.060256
 C        -2.508114         0.122511         1.577256
 C        -3.336513        -0.649923         0.416684
 C        -2.055522        -1.233667         0.980912
 C        -0.646446        -1.177244         0.343159
 C        -0.216339         0.084250        -0.407585
 O         0.850555         0.139806        -1.076076
 O        -0.859780         1.258139        -0.149513
 C        -1.867139         1.367301         0.979168
 H        -3.643657         0.709159         3.304962
 H        -2.971186        -0.913766         3.351897
 H        -2.043543         0.313267         3.700638
 H        -4.312438        -1.222778         0.713424
 H        -3.441673        -0.113611        -0.553900
 H        -2.096671        -2.205981         1.611628
 H         0.097405        -1.212151         1.139420
 H        -0.469705        -1.994075        -0.452791
 H        -1.312178         1.975363         1.673735
 H        -2.721423         2.005804         0.607560
