19
Iteration:  2610charge 0 multiplicity 1
 C        -3.397542         0.303897         2.767927
 C        -2.457310         0.052167         1.614609
 C        -2.988295        -0.680712         0.463363
 C        -1.737833        -1.282058         1.019949
 C        -0.396977        -1.195688         0.417409
 C        -0.295778         0.092839        -0.439577
 O         0.349678         0.143518        -1.476559
 O        -0.809165         1.251409         0.043814
 C        -1.596503         1.265830         1.376104
 H        -3.908438         1.282819         2.640651
 H        -4.338521        -0.186818         2.931054
 H        -2.971257         0.305564         3.753453
 H        -3.869993        -1.332923         0.529208
 H        -3.039113        -0.315080        -0.476608
 H        -2.032344        -2.218577         1.531038
 H         0.418704        -1.042992         1.111677
 H        -0.128329        -2.004242        -0.229429
 H        -0.851246         1.380339         2.168492
 H        -2.245336         2.173686         1.208746
