19
Iteration:   881
 C        -2.115483         0.099889         2.913451
 C        -2.514306         0.115453         1.426006
 C        -3.540779        -0.829719         0.889406
 C        -2.097147        -1.257886         0.847963
 C        -1.043779        -1.120242        -0.262615
 C        -0.200128         0.159649        -0.181543
 O         1.041490         0.198147        -0.234238
 O        -0.856521         1.420742        -0.095066
 C        -2.208779         1.219587         0.421743
 H        -2.877929         0.425475         3.616295
 H        -1.502450        -0.776310         3.196707
 H        -1.311534         0.892561         2.970214
 H        -4.191060        -1.405126         1.564323
 H        -4.101219        -0.586596        -0.076650
 H        -1.828162        -2.128273         1.575828
 H        -0.298476        -1.877754        -0.284680
 H        -1.550958        -1.077744        -1.228732
 H        -2.646295         2.145828         0.660739
 H        -2.756857         0.895012        -0.454382
