19
Iteration:  1799charge 0 multiplicity 1
 C        -3.461885         0.322589         2.735909
 C        -2.393024         0.068059         1.590744
 C        -2.954145        -0.679317         0.435200
 C        -1.765446        -1.273917         1.180461
 C        -0.450355        -1.233820         0.386349
 C        -0.284198         0.099615        -0.423019
 O         0.404637         0.259446        -1.430293
 O        -0.980196         1.144861         0.015229
 C        -1.456472         1.242168         1.282262
 H        -4.252436         1.074865         2.579463
 H        -4.012707        -0.468483         3.303461
 H        -2.763258         0.855036         3.433511
 H        -3.937667        -1.198498         0.414287
 H        -2.885465        -0.102937        -0.432823
 H        -1.884032        -2.130107         1.862233
 H         0.471226        -1.323118         1.141194
 H        -0.511502        -2.097937        -0.242001
 H        -0.693538         1.170207         2.045378
 H        -1.901811         2.243739         1.162784
