19
Iteration:  1097
 C        -2.915829         0.425763         2.973302
 C        -2.514397         0.117208         1.446378
 C        -3.315031        -0.934218         0.624954
 C        -1.920249        -1.318160         1.010868
 C        -0.793223        -1.204769         0.026304
 C        -0.196524         0.137160        -0.306867
 O         0.663489         0.258550        -1.160071
 O        -0.562148         1.211135         0.370992
 C        -1.863787         1.260259         0.763149
 H        -3.869014         0.917348         3.055014
 H        -2.927166        -0.304148         3.781727
 H        -2.194033         1.215681         3.244640
 H        -4.193929        -1.538098         0.984331
 H        -3.463276        -0.657994        -0.451586
 H        -1.856540        -1.925529         1.942880
 H        -0.020948        -1.864971         0.458906
 H        -1.071895        -1.654220        -0.973129
 H        -1.998490         2.191032         1.253735
 H        -2.541633         1.346280        -0.222256
