19
Iteration:  1596
 C        -3.291710         0.263425         2.822275
 C        -2.371051         0.124511         1.652652
 C        -3.020103        -0.671680         0.471348
 C        -1.849212        -1.238532         1.117058
 C        -0.514034        -1.254190         0.363857
 C        -0.245812         0.063729        -0.447024
 O         0.516266         0.139923        -1.390125
 O        -0.920480         1.200220         0.026068
 C        -1.648530         1.366485         1.166422
 H        -4.268591         0.728176         2.570876
 H        -3.467786        -0.792222         2.996327
 H        -2.873978         0.763947         3.677902
 H        -4.004254        -1.051536         0.688899
 H        -2.906156        -0.075683        -0.401704
 H        -1.871056        -2.205419         1.658379
 H         0.199520        -1.371942         1.198163
 H        -0.333303        -2.082177        -0.365534
 H        -1.062648         1.756117         1.950318
 H        -2.418284         2.080621         0.976575
