19
Iteration:  1427charge 0 multiplicity 1
 C        -3.233311         0.324813         2.869791
 C        -2.481666        -0.004867         1.565978
 C        -3.089054        -0.686701         0.409338
 C        -1.840821        -1.267975         1.172263
 C        -0.544556        -1.173749         0.315816
 C        -0.260121         0.083470        -0.426061
 O         0.476280         0.062382        -1.348367
 O        -0.774870         1.307153         0.031236
 C        -1.645244         1.297593         1.159643
 H        -4.209035         0.709183         2.619082
 H        -3.290113        -0.602406         3.452135
 H        -2.621277         0.998839         3.511516
 H        -4.096853        -0.974054         0.670580
 H        -2.973072        -0.121366        -0.539593
 H        -1.943771        -2.185517         1.792876
 H         0.282122        -1.225966         1.059914
 H        -0.393947        -1.975868        -0.412675
 H        -1.106010         1.614511         1.987712
 H        -2.492300         2.013141         1.014907
