19
Iteration:  3974charge 0 multiplicity 1
 C        -2.979725         0.200243         2.966942
 C        -2.422653         0.087167         1.512329
 C        -3.138715        -0.286301         0.187927
 C        -2.123803        -1.249199         0.851776
 C        -0.763918        -1.266227         0.224132
 C        -0.307023         0.039008        -0.343967
 O         0.487300         0.093888        -1.270763
 O        -0.708428         1.157017         0.256653
 C        -1.517111         1.226195         1.365463
 H        -3.803051        -0.522144         3.075695
 H        -2.071818         0.170371         3.582701
 H        -3.310420         1.235389         3.030665
 H        -4.140755        -0.563505         0.046639
 H        -2.715717         0.062302        -0.777807
 H        -2.520012        -2.233497         1.185758
 H        -0.109063        -1.647912         0.967127
 H        -0.675018        -1.978763        -0.639964
 H        -0.773381         1.294792         2.191173
 H        -2.069794         2.191858         1.285139
