19
Iteration:  3063
 C        -3.081597         0.118467         2.940961
 C        -2.446470         0.053924         1.571381
 C        -3.017406        -0.652465         0.272966
 C        -1.897976        -1.185591         1.048335
 C        -0.561408        -1.065681         0.429459
 C        -0.267912         0.114020        -0.376888
 O         0.558121         0.168536        -1.273776
 O        -1.022172         1.157739        -0.075583
 C        -1.643616         1.293106         1.208252
 H        -4.106337        -0.208249         2.795650
 H        -2.663930        -0.484842         3.776217
 H        -3.299869         1.113933         3.341107
 H        -3.987174        -1.254349         0.288201
 H        -2.935163        -0.097181        -0.606264
 H        -2.079304        -2.059174         1.697328
 H         0.310140        -1.174640         1.195221
 H        -0.517495        -1.949670        -0.256464
 H        -0.882142         1.548461         2.000455
 H        -2.182241         2.273220         1.106502
