19
Iteration:   386
 C        -2.829748         0.049166         2.907129
 C        -2.621744         0.158032         1.484644
 C        -3.323737        -0.718465         0.420407
 C        -2.005121        -1.146124         0.945254
 C        -0.759014        -1.228286         0.190205
 C        -0.146337         0.094981        -0.317159
 O         0.786450         0.007809        -1.084253
 O        -0.777814         1.335082        -0.001105
 C        -1.785355         1.467040         1.147926
 H        -2.249216        -0.541185         3.523614
 H        -2.713101         1.109708         3.340056
 H        -3.889224        -0.184718         3.264532
 H        -4.264338        -1.184537         0.763459
 H        -3.478041        -0.419559        -0.591675
 H        -2.165047        -1.929867         1.739797
 H         0.022511        -1.611473         0.845190
 H        -0.808255        -1.815441        -0.704911
 H        -1.227027         1.816848         2.024983
 H        -2.465413         2.197235         0.708552
