19
Iteration:  3176charge 0 multiplicity 1
 C        -3.080055         0.070707         2.886103
 C        -2.510976         0.127166         1.560005
 C        -3.216896        -0.618553         0.455319
 C        -1.989818        -1.219849         1.002435
 C        -0.588089        -1.216875         0.317074
 C        -0.211150         0.083093        -0.433975
 O         0.608632         0.161283        -1.317032
 O        -0.767419         1.297305         0.077945
 C        -1.704306         1.309798         1.165740
 H        -2.390524         0.252979         3.691510
 H        -3.847367         0.827089         2.965895
 H        -3.654690        -0.866245         3.082436
 H        -4.209726        -1.150549         0.592582
 H        -2.938607        -0.199495        -0.505497
 H        -1.970419        -1.993273         1.790379
 H         0.353458        -1.389065         1.013091
 H        -0.467373        -2.090478        -0.333989
 H        -1.180719         1.770956         2.078937
 H        -2.296588         2.117062         0.901509
