19
Iteration:  3494
 C        -3.186153         0.086267         2.935126
 C        -2.481188         0.166723         1.567889
 C        -3.230567        -0.432784         0.357163
 C        -2.100127        -1.160246         0.986794
 C        -0.777941        -1.270707         0.183146
 C        -0.228398         0.018514        -0.445477
 O         0.568314         0.093241        -1.334137
 O        -0.600649         1.263653         0.124569
 C        -1.439481         1.252290         1.344864
 H        -3.438037         1.057320         3.402939
 H        -4.083592        -0.518093         2.731017
 H        -2.580883        -0.457098         3.711156
 H        -4.349749        -0.582042         0.557498
 H        -2.880510         0.132260        -0.478419
 H        -2.160851        -2.168308         1.388676
 H        -0.062738        -1.450086         0.927631
 H        -0.718270        -2.069254        -0.583857
 H        -0.707099         1.275564         2.137464
 H        -1.929222         2.188584         1.290601
