19
Iteration:  2464
 C        -3.276348         0.279605         2.703864
 C        -2.436513         0.057563         1.470308
 C        -3.058074        -0.898757         0.459244
 C        -1.825372        -1.333610         1.167527
 C        -0.620492        -1.150748         0.345873
 C        -0.363848         0.178666        -0.362926
 O         0.382658         0.168177        -1.307571
 O        -0.791978         1.401422        -0.001256
 C        -1.429806         1.248575         1.201014
 H        -3.862507         1.176985         2.784692
 H        -4.004613        -0.415739         3.123024
 H        -2.658026         0.351441         3.649435
 H        -4.058721        -1.372793         0.833063
 H        -2.910034        -0.583163        -0.659668
 H        -1.691303        -2.047527         1.993596
 H         0.240362        -1.155550         1.082742
 H        -0.424032        -2.033918        -0.316306
 H        -0.739706         1.284496         2.107212
 H        -1.982805         2.150017         1.402360
