19
Iteration:  4529
 C        -3.295363        -0.000456         2.809427
 C        -2.487104         0.155010         1.564110
 C        -3.081362        -0.365366         0.286198
 C        -1.957747        -1.145192         1.041821
 C        -0.649689        -1.166521         0.315576
 C        -0.236895         0.069179        -0.400620
 O         0.338713        -0.012077        -1.426197
 O        -0.710988         1.315423         0.114699
 C        -1.353680         1.218664         1.442202
 H        -3.988625         0.808993         2.909301
 H        -3.850735        -0.924606         2.804689
 H        -2.720107         0.023221         3.705191
 H        -4.110308        -0.542298         0.659302
 H        -2.767356        -0.112389        -0.733119
 H        -2.329281        -2.083453         1.424791
 H         0.145709        -1.477070         1.080639
 H        -0.564641        -1.936034        -0.489891
 H        -0.482157         0.978753         2.105406
 H        -1.399562         2.269406         1.696700
