19
Iteration:  4753
 C        -3.347690         0.118805         2.905983
 C        -2.384635         0.187279         1.663155
 C        -3.090393        -0.397650         0.297382
 C        -2.025711        -1.186412         1.019031
 C        -0.663604        -1.313798         0.170064
 C        -0.172769         0.006635        -0.452621
 O         0.452163         0.117042        -1.424633
 O        -0.703611         1.212706         0.128636
 C        -1.431315         1.286359         1.480786
 H        -4.162612         0.778789         3.079233
 H        -3.849643        -0.848195         2.954712
 H        -2.816312         0.190559         3.864312
 H        -4.112428        -0.661911         0.257508
 H        -2.839441         0.119358        -0.624077
 H        -2.259804        -2.164477         1.431575
 H         0.065633        -1.824397         0.838664
 H        -0.914178        -2.027893        -0.611514
 H        -0.491286         1.477637         2.124471
 H        -1.958141         2.309757         1.303372
