19
Iteration:  1756charge 0 multiplicity 1
 C        -3.237685         0.170051         2.747454
 C        -2.546416         0.027488         1.465474
 C        -3.056952        -0.796837         0.388280
 C        -1.838999        -1.282580         1.117146
 C        -0.503063        -0.989553         0.514916
 C        -0.314425         0.076811        -0.409496
 O         0.307395         0.053435        -1.442530
 O        -0.694786         1.373524         0.057522
 C        -1.529703         1.306603         1.267145
 H        -3.944898         1.032803         2.752721
 H        -3.912894        -0.668562         2.993884
 H        -2.521407         0.480579         3.524795
 H        -4.119523        -1.024629         0.637551
 H        -2.949883        -0.415742        -0.574755
 H        -1.900290        -2.179962         1.743432
 H         0.158588        -0.653212         1.503972
 H        -0.112857        -1.875002         0.045730
 H        -0.753517         1.190317         2.014282
 H        -2.182718         2.174546         1.304489
