19
Iteration:   610
 C        -3.421395         0.350641         2.746352
 C        -2.451735         0.040291         1.611366
 C        -3.015504        -0.742106         0.398193
 C        -1.816825        -1.271760         1.086866
 C        -0.394292        -1.151375         0.460105
 C        -0.219194         0.106604        -0.475485
 O         0.362662         0.197915        -1.515552
 O        -0.844559         1.226433         0.080554
 C        -1.551049         1.194553         1.364064
 H        -3.401396         1.508091         2.981668
 H        -4.487215         0.291534         2.452763
 H        -3.067707        -0.072313         3.684872
 H        -3.892811        -1.348048         0.769362
 H        -3.053014        -0.383204        -0.627313
 H        -2.006643        -2.295396         1.623648
 H         0.283704        -1.202478         1.276445
 H        -0.155812        -2.100595        -0.080040
 H        -0.731726         1.327975         2.101770
 H        -2.100426         2.199874         1.358385
