19
Iteration:  4789charge 0 multiplicity 1
 C        -3.269278         0.267289         2.866421
 C        -2.416622         0.028172         1.578905
 C        -3.172033        -0.424393         0.290654
 C        -2.002937        -1.260255         0.912922
 C        -0.619050        -1.287974         0.260742
 C        -0.285987         0.038797        -0.422018
 O         0.324100         0.130308        -1.413692
 O        -0.568994         1.218589         0.248675
 C        -1.401004         1.262433         1.405619
 H        -3.945844         1.187002         2.866411
 H        -3.808176        -0.715772         2.826577
 H        -2.560284         0.136578         3.727402
 H        -4.250341        -0.571972         0.423228
 H        -2.873819         0.074443        -0.617588
 H        -2.265131        -2.230770         1.349126
 H         0.137072        -1.311211         1.031219
 H        -0.358278        -2.070857        -0.485083
 H        -0.819207         1.361588         2.318520
 H        -2.092999         2.105590         1.369784
