19
Iteration:   169charge 0 multiplicity 1
 C        -3.303222         0.022906         2.938562
 C        -2.517333         0.165914         1.537252
 C        -3.283205        -0.453557         0.302786
 C        -2.093460        -1.184709         0.959487
 C        -0.726420        -1.083518         0.354816
 C        -0.138501         0.089758        -0.405294
 O         0.589319         0.029900        -1.396215
 O        -0.635548         1.280391         0.053353
 C        -1.340207         1.181016         1.370042
 H        -3.469817        -0.942399         3.333050
 H        -2.723009         0.618778         3.694056
 H        -4.247298         0.579874         2.917287
 H        -4.310627        -0.779975         0.540974
 H        -3.258583        -0.110233        -0.772238
 H        -2.271997        -2.234058         1.415209
 H        -0.051973        -1.251552         1.193078
 H        -0.641954        -1.948434        -0.319651
 H        -0.583740         1.063611         2.119557
 H        -1.625970         2.226454         1.552202
