19
Iteration:  4865charge 0 multiplicity 1
 C        -3.347825         0.102043         2.870985
 C        -2.405439         0.001341         1.652063
 C        -2.996882        -0.195911         0.303134
 C        -2.020494        -1.206721         0.966314
 C        -0.561087        -1.237032         0.435531
 C        -0.215351         0.079583        -0.430689
 O         0.264651         0.050896        -1.512926
 O        -0.709465         1.190397         0.154282
 C        -1.362321         1.208981         1.384710
 H        -3.800411         0.997524         2.651962
 H        -4.087798        -0.605151         2.516025
 H        -3.023167        -0.058004         3.867958
 H        -4.094957        -0.409773         0.211071
 H        -2.646562         0.263502        -0.601389
 H        -2.434211        -2.143971         1.387527
 H         0.237294        -1.217441         1.175357
 H        -0.246374        -1.984027        -0.339811
 H        -0.543514         1.270109         2.184959
 H        -2.092420         2.032047         1.388044
