19
Iteration:  4052
 C        -3.377319         0.143265         2.889993
 C        -2.464406         0.139507         1.643519
 C        -3.061410        -0.271686         0.304873
 C        -2.024007        -1.205704         0.955315
 C        -0.580728        -1.277692         0.261363
 C        -0.191669         0.010081        -0.432887
 O         0.411913         0.079091        -1.481206
 O        -0.717163         1.216369         0.156426
 C        -1.373875         1.169627         1.493574
 H        -4.444410         0.042497         2.524343
 H        -3.189173        -0.791991         3.398817
 H        -3.287622         1.080890         3.492094
 H        -4.166159        -0.559385         0.215397
 H        -2.749517         0.393981        -0.506190
 H        -2.235811        -2.099638         1.476520
 H         0.106788        -1.697571         0.952685
 H        -0.663257        -1.985189        -0.590313
 H        -0.534262         1.271695         2.209739
 H        -1.829654         2.164574         1.521100
