19
Iteration:   451charge 0 multiplicity 1
 C        -3.376044         0.274885         2.827210
 C        -2.482078         0.113045         1.593470
 C        -3.063857        -0.593347         0.429300
 C        -1.894229        -1.232846         1.060759
 C        -0.469195        -1.136099         0.319974
 C        -0.251334         0.089623        -0.399102
 O         0.507633         0.127734        -1.372179
 O        -0.911984         1.178584        -0.015850
 C        -1.439903         1.204984         1.335250
 H        -4.182451        -0.436884         2.833446
 H        -2.827492        -0.036091         3.812465
 H        -3.780957         1.391668         2.753927
 H        -3.996873        -1.179075         0.570448
 H        -3.077284        -0.072908        -0.495133
 H        -2.129121        -2.228660         1.464446
 H         0.430720        -1.415002         0.971306
 H        -0.491463        -1.839499        -0.502551
 H        -0.640365         1.117053         2.166001
 H        -1.877884         2.193820         1.514799
