19
Iteration:   823
 C        -2.564434         0.492321         2.907317
 C        -2.485485         0.022644         1.445701
 C        -3.417722        -1.065990         0.900820
 C        -1.929048        -1.243505         0.872193
 C        -1.078265        -1.021075        -0.436748
 C        -0.147520         0.134496        -0.314107
 O         1.005870         0.260552        -0.641247
 O        -0.719790         1.149978         0.349356
 C        -2.105169         1.192758         0.580254
 H        -3.019398         1.573478         2.951204
 H        -3.292873         0.039960         3.654551
 H        -1.520211         0.774680         3.348375
 H        -4.012842        -1.687589         1.608757
 H        -3.900324        -0.801456        -0.051889
 H        -1.526738        -1.904738         1.589429
 H        -0.578683        -1.995803        -0.588505
 H        -1.745023        -1.017663        -1.254834
 H        -2.378815         2.016804         1.239379
 H        -2.608718         1.328206        -0.371228
