19
Iteration:  2399charge 0 multiplicity 1
 C        -3.051191         0.067323         2.987851
 C        -2.416924         0.113590         1.542387
 C        -3.129087        -0.661833         0.422182
 C        -1.882211        -1.200711         1.102471
 C        -0.604403        -1.235144         0.357851
 C        -0.238654         0.070015        -0.411202
 O         0.649304         0.131961        -1.224122
 O        -0.916346         1.301554        -0.059058
 C        -1.790423         1.400166         1.036786
 H        -4.092956         0.446609         3.017053
 H        -3.223070        -1.003062         3.289715
 H        -2.332921         0.555852         3.724752
 H        -4.223288        -1.078011         0.640873
 H        -3.044109        -0.206599        -0.607228
 H        -1.978022        -1.985571         1.860835
 H         0.169261        -1.400968         1.089616
 H        -0.490610        -1.991679        -0.429545
 H        -1.274583         2.135832         1.778614
 H        -2.638814         1.991040         0.591772
