19
Iteration:  4883charge 0 multiplicity 1
 C        -3.428533         0.099497         2.824443
 C        -2.385162         0.132603         1.676720
 C        -2.955788        -0.248514         0.331039
 C        -1.942900        -1.213988         0.913206
 C        -0.548508        -1.258419         0.337962
 C        -0.296925        -0.020040        -0.463785
 O         0.299516         0.053549        -1.455543
 O        -0.712137         1.200654         0.091046
 C        -1.381800         1.266638         1.497769
 H        -4.065726         1.068304         2.948274
 H        -4.065060        -0.812510         2.867449
 H        -2.740134         0.041009         3.708801
 H        -3.983340        -0.516206         0.274486
 H        -2.731977         0.434027        -0.448257
 H        -2.313838        -2.143920         1.222774
 H         0.206978        -1.361512         1.192747
 H        -0.474137        -2.175845        -0.256127
 H        -0.649759         1.134367         2.317856
 H        -2.066085         2.206732         1.477520
