19
Iteration:  1506
 C        -3.125186         0.318467         2.986726
 C        -2.480185        -0.004611         1.624661
 C        -3.121971        -0.568015         0.376481
 C        -1.890574        -1.275591         0.925654
 C        -0.466030        -1.154854         0.416599
 C        -0.159338         0.162749        -0.310267
 O         0.551536         0.103164        -1.250571
 O        -1.028729         1.140961        -0.141099
 C        -1.642525         1.266440         1.144773
 H        -3.361965         1.385149         3.089161
 H        -4.073550        -0.181722         3.203742
 H        -2.415838         0.138684         3.790861
 H        -4.114999        -1.097421         0.519233
 H        -2.979566        -0.214955        -0.680909
 H        -2.079301        -2.172471         1.491142
 H         0.156810        -1.479350         1.317364
 H        -0.207259        -1.887418        -0.328857
 H        -0.960976         1.707138         1.786926
 H        -2.462641         1.993969         0.984872
