19
Iteration:  1169charge 0 multiplicity 1
 C        -3.028205         0.261500         2.807038
 C        -2.652391         0.192418         1.420351
 C        -3.217491        -0.936726         0.536025
 C        -1.893175        -1.196539         1.208114
 C        -0.710013        -1.259525         0.172991
 C        -0.205418         0.101259        -0.414713
 O         0.601368         0.177469        -1.364084
 O        -0.543782         1.228486         0.342165
 C        -1.828976         1.413023         0.973592
 H        -3.405175         1.360525         2.902452
 H        -3.868890        -0.371789         3.191081
 H        -2.203844         0.180491         3.554704
 H        -4.169749        -1.342457         0.993783
 H        -3.170303        -1.087141        -0.526644
 H        -1.680088        -1.445200         2.265085
 H         0.128796        -1.785096         0.709057
 H        -1.060238        -1.924510        -0.633701
 H        -1.470553         1.924341         1.926421
 H        -2.344193         2.129551         0.418174
