19
Iteration:  1505
 C        -3.140323         0.319266         2.988118
 C        -2.480127        -0.004740         1.629993
 C        -3.121827        -0.575431         0.378336
 C        -1.894811        -1.270986         0.928231
 C        -0.466946        -1.164145         0.417040
 C        -0.154921         0.166121        -0.316399
 O         0.555790         0.105739        -1.252259
 O        -1.033981         1.140157        -0.143546
 C        -1.626995         1.270170         1.144303
 H        -3.364337         1.382672         3.096029
 H        -4.086690        -0.195568         3.206125
 H        -2.387012         0.137302         3.772179
 H        -4.134887        -1.100901         0.514595
 H        -2.945872        -0.193704        -0.659223
 H        -2.070325        -2.181949         1.495718
 H         0.169508        -1.445815         1.268337
 H        -0.233312        -1.905437        -0.315952
 H        -0.959199         1.728465         1.797642
 H        -2.469604         1.990025         1.004183
