19
Iteration:   713charge 0 multiplicity 1
 C        -2.850705         0.203536         3.096617
 C        -2.500530         0.012854         1.530413
 C        -3.344255        -0.627389         0.567081
 C        -1.970675        -1.229755         0.854166
 C        -0.644969        -1.210525         0.130315
 C        -0.145735         0.094989        -0.300548
 O         0.834813         0.109047        -1.060588
 O        -0.838804         1.278424        -0.012565
 C        -1.984548         1.331156         0.910236
 H        -3.832033         0.788003         3.102203
 H        -2.752526        -0.738059         3.722458
 H        -2.092908         0.993813         3.525803
 H        -4.216381        -1.252024         0.771076
 H        -3.464932        -0.086286        -0.346060
 H        -2.081913        -2.046011         1.467148
 H        -0.003523        -1.568136         0.998365
 H        -0.673313        -1.992812        -0.577010
 H        -1.632285         2.037359         1.703753
 H        -2.640105         1.802774         0.234441
