19
Iteration:  1748
 C        -3.197284         0.168101         2.817724
 C        -2.447485         0.070867         1.457295
 C        -3.037082        -0.750900         0.324032
 C        -1.888266        -1.296641         1.100447
 C        -0.511415        -1.024357         0.562520
 C        -0.340212         0.120268        -0.377392
 O         0.257235         0.065156        -1.406590
 O        -0.667918         1.325522         0.028181
 C        -1.582173         1.325815         1.218131
 H        -3.943778         0.999457         2.793505
 H        -3.782033        -0.748228         2.939540
 H        -2.600291         0.232365         3.721260
 H        -3.980786        -1.292237         0.415074
 H        -2.842226        -0.561690        -0.732529
 H        -1.989905        -2.250059         1.680364
 H         0.106830        -0.697851         1.383341
 H        -0.020179        -1.929243         0.179722
 H        -0.943773         1.421140         2.161852
 H        -2.151495         2.257839         1.158160
