19
Iteration:  4213charge 0 multiplicity 1
 C        -3.221707         0.209461         2.870070
 C        -2.536692         0.044196         1.560403
 C        -3.355760        -0.358887         0.394015
 C        -2.112217        -1.173566         0.833478
 C        -0.717606        -1.211136         0.204648
 C        -0.196869         0.103992        -0.413734
 O         0.619843         0.195047        -1.336014
 O        -0.601833         1.170835         0.169381
 C        -1.323267         1.057516         1.375976
 H        -3.255955        -0.757226         3.440297
 H        -2.720477         0.925753         3.509003
 H        -4.259896         0.507537         2.966195
 H        -4.295551        -0.805630         0.783201
 H        -3.508278         0.071763        -0.618978
 H        -2.203670        -2.066121         1.394671
 H         0.025145        -1.482473         1.005686
 H        -0.718378        -2.011116        -0.588116
 H        -0.588188         0.788990         2.166154
 H        -1.943385         1.957400         1.592062
