19
Iteration:  2301charge 0 multiplicity 1
 C        -3.176851         0.247487         2.897498
 C        -2.411985         0.125165         1.581254
 C        -3.009805        -0.702272         0.486128
 C        -1.832903        -1.301232         1.018733
 C        -0.520602        -1.241237         0.271634
 C        -0.277759         0.121152        -0.400389
 O         0.654450         0.210381        -1.129237
 O        -1.180808         1.187853        -0.153876
 C        -1.592137         1.331258         1.171425
 H        -3.469133         1.295243         3.172181
 H        -4.189811        -0.171896         2.748689
 H        -2.732787        -0.263805         3.798133
 H        -3.966462        -1.298236         0.700695
 H        -2.897597        -0.177365        -0.478932
 H        -1.972925        -2.113402         1.744993
 H         0.278211        -1.567853         0.855921
 H        -0.677790        -1.927961        -0.500898
 H        -0.796134         1.616618         1.821600
 H        -2.054259         2.311426         1.236536
