19
Iteration:   327
 C        -2.873007         0.255223         3.063962
 C        -2.415378         0.120391         1.573852
 C        -3.327304        -0.491399         0.567452
 C        -2.019746        -1.272440         0.830539
 C        -0.814693        -1.315980        -0.173111
 C        -0.142547         0.058461        -0.300450
 O         0.904250         0.143270        -0.877637
 O        -0.871084         1.143812         0.038133
 C        -1.877784         1.338631         0.985004
 H        -2.540800         1.284847         3.532084
 H        -3.988871         0.251001         2.977793
 H        -2.570404        -0.605339         3.710792
 H        -4.172405        -0.865036         1.127388
 H        -3.391818        -0.075922        -0.432343
 H        -1.991163        -2.167408         1.410094
 H        -0.015106        -2.070631         0.147030
 H        -1.032058        -1.641885        -1.228751
 H        -1.328466         1.905279         1.835480
 H        -2.602548         2.110877         0.685962
