19
Iteration:  2441
 C        -3.236043         0.359049         2.834659
 C        -2.436588         0.042711         1.602792
 C        -3.172956        -0.784255         0.453740
 C        -1.858148        -1.263723         1.111131
 C        -0.493594        -1.204785         0.320337
 C        -0.202040         0.142786        -0.477915
 O         0.580309         0.219171        -1.445890
 O        -0.836563         1.221236         0.080440
 C        -1.731400         1.253380         1.265485
 H        -3.969421         1.102320         2.718227
 H        -3.804786        -0.462564         3.272913
 H        -2.670929         0.675590         3.738447
 H        -4.062791        -1.454604         0.762772
 H        -3.041847        -0.566126        -0.608581
 H        -1.891902        -2.072202         1.868296
 H         0.471122        -1.418558         0.871492
 H        -0.595902        -2.039675        -0.449472
 H        -1.138435         1.602341         2.150253
 H        -2.382432         2.085760         1.081196
