19
Iteration:  2614charge 0 multiplicity 1
 C        -3.409118         0.336242         2.802023
 C        -2.444247         0.013664         1.648059
 C        -2.962760        -0.695689         0.478509
 C        -1.758345        -1.302602         0.993268
 C        -0.379227        -1.214499         0.385558
 C        -0.266120         0.080475        -0.426287
 O         0.362912         0.149318        -1.484195
 O        -0.831402         1.262637         0.045258
 C        -1.623996         1.297068         1.358173
 H        -3.857005         1.357773         2.644674
 H        -4.383175        -0.236955         2.833541
 H        -3.137152         0.437518         3.888860
 H        -3.855729        -1.264790         0.574842
 H        -3.037542        -0.161274        -0.543259
 H        -2.050145        -2.255666         1.458415
 H         0.390627        -1.119797         1.151622
 H        -0.115013        -2.079592        -0.294324
 H        -0.814257         1.432056         2.112539
 H        -2.278450         2.158130         1.207068
