19
Iteration:  4661
 C        -3.089271         0.078315         2.985561
 C        -2.490090         0.102708         1.616546
 C        -3.162509        -0.343285         0.339610
 C        -2.012146        -1.166029         0.899836
 C        -0.709626        -1.257224         0.201425
 C        -0.168041         0.025715        -0.419979
 O         0.609418         0.085310        -1.296404
 O        -0.847101         1.158387         0.087217
 C        -1.545694         1.335184         1.316695
 H        -3.423329         1.051248         3.390695
 H        -3.978598        -0.531845         2.991686
 H        -2.428687        -0.376303         3.680167
 H        -4.255752        -0.468545         0.267174
 H        -2.852435         0.140058        -0.637491
 H        -2.437181        -2.093756         1.381308
 H         0.181403        -1.447186         0.892357
 H        -0.631379        -2.022004        -0.610077
 H        -0.882412         1.320687         2.281242
 H        -2.118359         2.259027         1.320166
