19
Iteration:   168charge 0 multiplicity 1
 C        -3.310914         0.027299         2.943091
 C        -2.520886         0.161342         1.546877
 C        -3.282675        -0.457678         0.300605
 C        -2.093959        -1.181476         0.959515
 C        -0.718699        -1.081893         0.348398
 C        -0.136152         0.088227        -0.401127
 O         0.585167         0.028173        -1.407481
 O        -0.632692         1.281027         0.053720
 C        -1.336097         1.187707         1.372692
 H        -3.475614        -0.905801         3.308166
 H        -2.763073         0.615280         3.734252
 H        -4.267239         0.568415         2.898996
 H        -4.322954        -0.783185         0.513282
 H        -3.227658        -0.107361        -0.747033
 H        -2.275586        -2.269175         1.420055
 H        -0.038708        -1.274050         1.204807
 H        -0.614651        -1.938627        -0.312994
 H        -0.593328         1.037328         2.118995
 H        -1.620935         2.228416         1.560269
