19
Iteration:    42charge 0 multiplicity 1
 C        -3.376363         0.115258         2.722930
 C        -2.443153         0.119316         1.545895
 C        -2.914719        -0.364598         0.175207
 C        -1.926099        -1.204813         1.013420
 C        -0.509186        -1.206047         0.517015
 C        -0.246980         0.062476        -0.332005
 O         0.039288         0.089258        -1.479805
 O        -0.596193         1.216743         0.219489
 C        -1.373827         1.187112         1.408154
 H        -4.406404        -0.248230         2.350863
 H        -3.064747        -0.525168         3.494935
 H        -3.562422         1.069555         3.151429
 H        -3.964255        -0.695968        -0.034817
 H        -2.471957         0.186899        -0.658915
 H        -2.267281        -2.039250         1.486394
 H         0.239441        -1.427760         1.318356
 H        -0.293362        -2.104830        -0.139853
 H        -0.685452         1.288862         2.226746
 H        -1.895289         2.132880         1.251935
