19
Iteration:  4843charge 0 multiplicity 1
 C        -3.248219         0.154081         2.803779
 C        -2.492070         0.120472         1.497350
 C        -3.065017        -0.404344         0.241884
 C        -2.002253        -1.152090         0.868283
 C        -0.574637        -1.241393         0.441947
 C        -0.291388         0.044234        -0.390630
 O         0.249966         0.054697        -1.470124
 O        -0.649177         1.227060         0.187805
 C        -1.365268         1.228547         1.530272
 H        -3.676900         1.099654         3.028280
 H        -4.031826        -0.608763         2.773718
 H        -2.527172        -0.130416         3.554870
 H        -4.053929        -0.826494         0.515110
 H        -3.033052         0.021404        -0.735793
 H        -2.288564        -2.026715         1.460764
 H         0.104381        -1.218250         1.289922
 H        -0.224198        -2.004764        -0.284822
 H        -0.521786         0.939003         2.237932
 H        -1.660385         2.290950         1.644258
