19
Iteration:  3512charge 0 multiplicity 1
 C        -3.069433         0.067245         2.844432
 C        -2.431845         0.136751         1.485084
 C        -3.254713        -0.419682         0.302551
 C        -2.154729        -1.276815         0.949629
 C        -0.855590        -1.173119         0.236272
 C        -0.286006         0.130384        -0.431810
 O         0.556288        -0.007040        -1.256763
 O        -0.635701         1.307781         0.142131
 C        -1.350541         1.298663         1.417824
 H        -3.799043         0.862595         2.971379
 H        -3.778435        -0.842798         2.963709
 H        -2.205956         0.092996         3.566932
 H        -4.252980        -0.848710         0.615067
 H        -3.214400        -0.299398        -0.780438
 H        -2.292187        -1.998354         1.751198
 H         0.103609        -1.483825         0.881527
 H        -0.844094        -1.907589        -0.568611
 H        -0.496333         1.147930         2.217000
 H        -1.872369         2.345535         1.455717
