19
Iteration:    43charge 0 multiplicity 1
 C        -3.384202         0.119303         2.721692
 C        -2.444624         0.124470         1.540217
 C        -2.920778        -0.367507         0.175972
 C        -1.928685        -1.207065         1.017563
 C        -0.500712        -1.202470         0.526330
 C        -0.246454         0.058207        -0.337637
 O         0.035002         0.096157        -1.486248
 O        -0.589964         1.213588         0.222642
 C        -1.365677         1.182286         1.411363
 H        -4.382140        -0.253388         2.356701
 H        -3.059284        -0.542166         3.466152
 H        -3.576784         1.055012         3.175046
 H        -3.942535        -0.704642        -0.009407
 H        -2.502116         0.180177        -0.684299
 H        -2.300175        -2.055283         1.474200
 H         0.236782        -1.412841         1.334102
 H        -0.286875        -2.081243        -0.130662
 H        -0.699406         1.294586         2.222713
 H        -1.880452         2.114986         1.236542
