19
Iteration:  1616charge 0 multiplicity 1
 C        -3.337124         0.385718         2.831313
 C        -2.407331        -0.010918         1.600009
 C        -3.006557        -0.638381         0.341893
 C        -1.785690        -1.293001         1.262493
 C        -0.462642        -1.235511         0.388655
 C        -0.260914         0.066319        -0.416185
 O         0.424319         0.267653        -1.384356
 O        -0.890478         1.158565        -0.062915
 C        -1.637689         1.235032         1.271822
 H        -4.162115         0.985953         2.376972
 H        -3.791191        -0.429758         3.419148
 H        -2.764558         1.058786         3.445529
 H        -4.003367        -1.012443         0.588805
 H        -2.744757        -0.323767        -0.689936
 H        -1.934168        -2.268456         1.762830
 H         0.377108        -1.424297         0.901877
 H        -0.598668        -2.035406        -0.300609
 H        -0.721826         1.328589         1.906820
 H        -2.186217         2.226162         1.269869
