19
Iteration:  3941
 C        -3.231209         0.076526         2.973705
 C        -2.504360         0.159159         1.636357
 C        -3.292393        -0.234696         0.405196
 C        -2.085169        -1.130148         0.854205
 C        -0.693246        -1.300289         0.199104
 C        -0.180027         0.043026        -0.437152
 O         0.616994         0.062205        -1.350171
 O        -0.665410         1.138550         0.101522
 C        -1.379767         1.286927         1.344304
 H        -3.570662        -0.945127         3.234313
 H        -2.758353         0.322587         3.938491
 H        -4.178997         0.632883         3.015982
 H        -4.178552        -0.775562         0.592554
 H        -3.239176         0.191869        -0.617154
 H        -2.407729        -2.173549         1.165641
 H        -0.094862        -1.708025         0.943726
 H        -0.714088        -1.968397        -0.701288
 H        -0.633062         1.148127         2.128748
 H        -1.805874         2.297275         1.453350
