19
Iteration:  1390charge 0 multiplicity 1
 C        -3.147165         0.264988         2.910775
 C        -2.561838         0.138908         1.496029
 C        -3.162861        -0.720295         0.337199
 C        -1.820133        -1.210913         1.112034
 C        -0.419620        -1.299349         0.450660
 C        -0.128987         0.040962        -0.356080
 O         0.263842         0.169942        -1.479038
 O        -0.566483         1.183233         0.246834
 C        -1.830352         1.390174         1.033364
 H        -4.072358         0.916308         2.993350
 H        -3.553088        -0.710704         3.234107
 H        -2.450869         0.756371         3.613766
 H        -4.182302        -1.088132         0.526734
 H        -3.164737        -0.201127        -0.600148
 H        -1.928533        -2.098004         1.732911
 H         0.325149        -1.351129         1.160997
 H        -0.327481        -2.234371        -0.125766
 H        -1.427684         2.031353         1.894367
 H        -2.281857         2.109598         0.364551
