19
Iteration:  3732
 C        -3.293131         0.293174         2.835668
 C        -2.452702         0.193136         1.478470
 C        -3.207257        -0.420684         0.281368
 C        -2.075043        -1.266636         0.817903
 C        -0.676449        -1.245766         0.248971
 C        -0.207950         0.038570        -0.346907
 O         0.294651         0.074986        -1.443208
 O        -0.584580         1.244724         0.277537
 C        -1.246884         1.081717         1.518783
 H        -3.497578        -0.689997         3.238995
 H        -2.657243         0.917728         3.501659
 H        -4.219678         0.868689         2.618959
 H        -4.185574        -0.689750         0.554270
 H        -3.058194         0.234453        -0.627726
 H        -2.329750        -2.138309         1.438137
 H         0.047684        -1.392407         1.115202
 H        -0.484077        -2.076767        -0.461816
 H        -0.468331         0.662727         2.161420
 H        -1.358696         2.142371         1.983812
