19
Iteration:   184
 C        -3.069991         0.086284         2.822869
 C        -2.510498         0.141171         1.471428
 C        -3.285264        -0.399007         0.351621
 C        -2.128343        -1.153754         0.909718
 C        -0.731653        -1.208529         0.318668
 C        -0.287168         0.068938        -0.412752
 O         0.655464         0.062124        -1.217734
 O        -0.712323         1.264365         0.077973
 C        -1.429158         1.201342         1.325184
 H        -3.216492        -1.076808         3.062315
 H        -2.329209         0.377101         3.570787
 H        -4.021774         0.605007         3.021820
 H        -4.221141        -0.816729         0.716377
 H        -3.292841         0.025114        -0.646842
 H        -2.368135        -1.890419         1.552591
 H        -0.002301        -1.311342         1.130861
 H        -0.481873        -2.081494        -0.318973
 H        -0.690397         0.972804         2.168058
 H        -1.918734         2.177956         1.420891
