19
Iteration:  3544charge 0 multiplicity 1
 C        -3.087954         0.226103         2.976447
 C        -2.508037         0.084976         1.554839
 C        -3.276061        -0.299357         0.295028
 C        -2.126102        -1.221144         0.837729
 C        -0.707345        -1.328688         0.186908
 C        -0.178604         0.029652        -0.359839
 O         0.571123         0.130121        -1.311724
 O        -0.727776         1.182453         0.128447
 C        -1.440497         1.183245         1.404278
 H        -4.049845         0.694291         2.852251
 H        -3.181493        -0.705973         3.562135
 H        -2.553781         0.966963         3.562078
 H        -4.201733        -0.866601         0.446103
 H        -3.099392         0.219365        -0.619818
 H        -2.213998        -2.108946         1.415092
 H         0.117428        -1.726162         0.896969
 H        -0.741578        -1.949835        -0.698167
 H        -0.624191         1.143744         2.144752
 H        -1.810051         2.269978         1.512500
