19
Iteration:   605charge 0 multiplicity 1
 C        -3.404479         0.362395         2.711991
 C        -2.468595         0.037710         1.564918
 C        -3.027298        -0.779434         0.401213
 C        -1.795125        -1.239298         1.090515
 C        -0.407774        -1.138281         0.430051
 C        -0.199421         0.119854        -0.412278
 O         0.294774         0.164541        -1.512337
 O        -0.810428         1.228079         0.097844
 C        -1.501587         1.248229         1.360584
 H        -3.371376         1.376112         2.899813
 H        -4.465998         0.076454         2.572220
 H        -3.273396        -0.242145         3.655148
 H        -3.826176        -1.398287         0.773246
 H        -3.089956        -0.434563        -0.651015
 H        -1.984087        -2.116043         1.602252
 H         0.379063        -1.111351         1.262505
 H        -0.264131        -2.110565        -0.063837
 H        -0.869489         1.252508         2.289386
 H        -2.094745         2.132091         1.406212
