19
Iteration:  4804charge 0 multiplicity 1
 C        -3.174143         0.163871         2.852440
 C        -2.459723         0.152494         1.481507
 C        -3.095286        -0.492783         0.222554
 C        -2.093747        -1.326493         0.929190
 C        -0.692799        -1.225092         0.383971
 C        -0.255186         0.106428        -0.389523
 O         0.312023         0.136030        -1.482489
 O        -0.532935         1.278748         0.252626
 C        -1.408013         1.198510         1.424596
 H        -3.656354         1.216466         2.837661
 H        -4.008688        -0.461185         3.194666
 H        -2.531120         0.299500         3.741706
 H        -4.094785        -0.984735         0.394060
 H        -3.008129        -0.163398        -0.851392
 H        -2.509866        -2.182981         1.567982
 H        -0.021462        -1.492712         1.237600
 H        -0.605116        -2.069894        -0.297638
 H        -0.796443         1.106321         2.323362
 H        -1.842874         2.213129         1.553986
