19
Iteration:  4801charge 0 multiplicity 1
 C        -3.189390         0.177951         2.874806
 C        -2.431586         0.124198         1.467334
 C        -3.096005        -0.477915         0.237410
 C        -2.109030        -1.320153         0.924517
 C        -0.673477        -1.246604         0.369971
 C        -0.277983         0.084953        -0.380493
 O         0.328308         0.139252        -1.490303
 O        -0.544754         1.284785         0.264621
 C        -1.409071         1.212818         1.428143
 H        -3.749990         1.226571         2.865298
 H        -4.065981        -0.491853         3.152224
 H        -2.571224         0.332036         3.814314
 H        -4.110574        -0.950099         0.426912
 H        -2.998827        -0.155202        -0.801926
 H        -2.457029        -2.246233         1.494066
 H         0.026731        -1.428225         1.173654
 H        -0.560106        -2.087002        -0.355869
 H        -0.770930         1.173372         2.280805
 H        -1.796715         2.218575         1.384163
