19
Iteration:  4503
 C        -3.307696        -0.005904         2.807364
 C        -2.504321         0.155215         1.588019
 C        -3.089452        -0.322107         0.336572
 C        -1.946783        -1.105235         0.934610
 C        -0.557807        -1.237105         0.453408
 C        -0.272216        -0.010413        -0.450057
 O         0.307186         0.100464        -1.535891
 O        -0.669703         1.203740         0.182206
 C        -1.379833         1.243245         1.409164
 H        -3.587907         1.062789         3.136128
 H        -4.316322        -0.496191         2.640034
 H        -2.879192        -0.517765         3.736789
 H        -4.016950        -0.849943         0.367619
 H        -2.699583         0.071831        -0.578467
 H        -2.383242        -1.972793         1.409738
 H         0.061113        -1.320638         1.363468
 H        -0.279027        -2.099451        -0.160447
 H        -0.507676         1.331939         2.214996
 H        -1.657647         2.348600         1.460125
