19
Iteration:  1683
 C        -3.266529         0.057896         2.836351
 C        -2.441608         0.080702         1.590506
 C        -2.999802        -0.621093         0.319050
 C        -1.829680        -1.190424         1.124641
 C        -0.481650        -1.105667         0.617171
 C        -0.203050         0.033821        -0.397523
 O         0.316888         0.046388        -1.522847
 O        -0.765524         1.282394        -0.051194
 C        -1.692315         1.405429         1.271694
 H        -3.815797         1.033248         2.913201
 H        -4.029760        -0.724210         2.842416
 H        -2.663361         0.002070         3.736841
 H        -4.016788        -1.082954         0.460854
 H        -2.809057        -0.263741        -0.671581
 H        -2.065116        -2.114460         1.755714
 H         0.121230        -0.890822         1.405474
 H        -0.089915        -2.024587         0.134560
 H        -1.023536         1.588605         2.164645
 H        -2.216979         2.324667         0.975678
