19
Iteration:  1328charge 0 multiplicity 1
 C        -3.280778         0.301705         2.810427
 C        -2.491192         0.120814         1.455675
 C        -3.050993        -0.784123         0.441028
 C        -1.777283        -1.138752         1.207131
 C        -0.533366        -1.236815         0.375378
 C        -0.187854         0.064484        -0.367495
 O         0.286795         0.164936        -1.483292
 O        -0.616346         1.223406         0.187400
 C        -1.681095         1.300538         1.137670
 H        -3.531943         1.322346         2.974615
 H        -4.197160        -0.295569         2.804997
 H        -2.683668        -0.111991         3.629426
 H        -3.958340        -1.264172         0.782451
 H        -3.032332        -0.452342        -0.591812
 H        -1.997961        -2.020080         1.854225
 H         0.406453        -1.434433         1.068756
 H        -0.633021        -2.130772        -0.303722
 H        -1.440772         1.660226         2.071275
 H        -2.382885         2.020192         0.611992
