19
Iteration:  1283
 C        -3.247649         0.312735         2.804419
 C        -2.389804         0.036215         1.647519
 C        -3.011896        -0.631108         0.354091
 C        -1.895276        -1.270198         1.125083
 C        -0.540280        -1.094009         0.460594
 C        -0.374859         0.064993        -0.460343
 O         0.511364         0.117219        -1.316036
 O        -0.968154         1.240538        -0.125980
 C        -1.505644         1.201390         1.275047
 H        -3.911401         1.124518         2.550096
 H        -3.820196        -0.598439         2.968588
 H        -2.706993         0.481130         3.750196
 H        -4.070331        -0.951079         0.572149
 H        -2.883641        -0.226158        -0.607867
 H        -1.925333        -2.225285         1.681604
 H         0.303304        -0.960796         1.278461
 H        -0.222948        -2.072381        -0.072883
 H        -0.595955         1.149150         1.803590
 H        -2.041113         2.151562         1.550893
