19
Iteration:  1613
 C        -3.333861         0.342049         2.816668
 C        -2.387962        -0.008372         1.608225
 C        -3.000206        -0.608791         0.397393
 C        -1.795481        -1.278021         1.228941
 C        -0.497615        -1.247276         0.394480
 C        -0.267205         0.046923        -0.407974
 O         0.433863         0.279253        -1.383469
 O        -0.878671         1.162806        -0.077498
 C        -1.635759         1.230263         1.259500
 H        -4.121723         0.941608         2.350611
 H        -3.816569        -0.430246         3.481746
 H        -2.786330         1.063590         3.493994
 H        -3.966152        -1.144814         0.504752
 H        -2.753077        -0.308413        -0.684764
 H        -2.071206        -2.147376         1.798273
 H         0.500971        -1.390388         0.942295
 H        -0.621001        -2.087209        -0.263695
 H        -0.724316         1.541376         1.957447
 H        -2.269257         2.202846         1.112713
