19
Iteration:  2911
 C        -3.303665         0.165672         2.822705
 C        -2.511272         0.027866         1.515023
 C        -3.058377        -0.734495         0.333768
 C        -1.826091        -1.211849         1.102345
 C        -0.401939        -0.950081         0.584302
 C        -0.203718         0.104413        -0.427559
 O         0.365774         0.103509        -1.505659
 O        -0.927413         1.226359        -0.004180
 C        -1.511810         1.295912         1.326844
 H        -3.806187         1.103177         3.044035
 H        -4.186847        -0.532784         2.912139
 H        -2.679373        -0.214072         3.688195
 H        -3.823796        -1.448304         0.509927
 H        -2.949560        -0.257469        -0.710425
 H        -1.983937        -2.222848         1.495148
 H         0.195231        -0.688342         1.447708
 H         0.131695        -1.823124         0.161786
 H        -0.745350         1.350694         2.157493
 H        -2.132160         2.125455         1.237438
