19
Iteration:     1
 C        -3.225612         0.155885         2.836954
 C        -2.461577         0.112644         1.531693
 C        -3.133637        -0.400327         0.281215
 C        -2.027084        -1.199049         0.937905
 C        -0.643263        -1.239167         0.320289
 C        -0.234514         0.053143        -0.371362
 O         0.475329         0.096107        -1.337671
 O        -0.726757         1.212189         0.139832
 C        -1.440175         1.224179         1.383292
 H        -3.909274        -0.694351         2.915436
 H        -2.548804         0.119431         3.698974
 H        -3.822688         1.071619         2.920097
 H        -4.147127        -0.773758         0.378313
 H        -2.929094         0.091874        -0.663724
 H        -2.320338        -2.108327         1.454603
 H         0.103893        -1.440363         1.101178
 H        -0.538210        -2.033755        -0.422741
 H        -0.717036         1.176278         2.210592
 H        -1.917106         2.208551         1.419228
