19
Iteration:  2086
 C        -3.249910         0.063534         2.895467
 C        -2.455863         0.130410         1.534500
 C        -3.024738        -0.695497         0.230901
 C        -1.858863        -1.193546         1.123296
 C        -0.401431        -1.033625         0.641348
 C        -0.228076         0.081342        -0.349955
 O         0.271455         0.053842        -1.465997
 O        -0.859049         1.279240        -0.052244
 C        -1.578073         1.334012         1.212530
 H        -3.480413         1.088760         3.284425
 H        -4.088994        -0.530839         2.605876
 H        -2.768776        -0.480619         3.701887
 H        -3.962263        -1.226829         0.247928
 H        -2.675777        -0.223397        -0.696539
 H        -1.892339        -2.090290         1.722426
 H         0.244908        -0.679231         1.386933
 H        -0.088081        -1.968578         0.196419
 H        -0.835817         1.395294         2.079219
 H        -2.258111         2.185888         1.182923
