19
Iteration:  3530charge 0 multiplicity 1
 C        -3.035369         0.163366         2.859348
 C        -2.443068         0.129304         1.463588
 C        -3.278321        -0.451049         0.349729
 C        -2.045593        -1.162037         0.883632
 C        -0.764089        -1.249209         0.162823
 C        -0.238952         0.070298        -0.308481
 O         0.490982         0.019921        -1.218399
 O        -0.690863         1.313352         0.147363
 C        -1.402012         1.188495         1.343427
 H        -4.004404         0.725671         2.882672
 H        -3.232372        -0.784021         3.310416
 H        -2.327626         0.593495         3.543313
 H        -4.278946        -0.603741         0.497052
 H        -3.245243         0.137327        -0.603570
 H        -2.598680        -2.008888         1.336431
 H        -0.112617        -1.675397         0.890480
 H        -0.676730        -1.935955        -0.685072
 H        -0.846631         0.825599         2.163219
 H        -1.745740         2.162797         1.641327
