19
Iteration:  4121charge 0 multiplicity 1
 C        -3.300005         0.145559         2.896866
 C        -2.518248         0.118048         1.529491
 C        -3.263039        -0.400880         0.266460
 C        -2.016118        -1.099937         0.884660
 C        -0.599809        -1.138146         0.354945
 C        -0.171925         0.093301        -0.396403
 O         0.346785         0.068393        -1.505733
 O        -0.522926         1.182025         0.231984
 C        -1.371822         1.077996         1.459088
 H        -4.103211        -0.516667         2.613716
 H        -2.568187        -0.430203         3.537546
 H        -3.600658         1.183140         3.202210
 H        -4.238600        -0.834441         0.188500
 H        -3.170435         0.371546        -0.537902
 H        -2.374497        -1.994917         1.477200
 H         0.045350        -1.283211         1.186376
 H        -0.515584        -1.999510        -0.256140
 H        -0.761627         0.869439         2.414597
 H        -1.758454         2.114568         1.495645
