19
Iteration:  2615charge 0 multiplicity 1
 C        -3.414959         0.345498         2.812225
 C        -2.439822         0.004916         1.656698
 C        -2.958222        -0.697075         0.476509
 C        -1.764801        -1.309408         0.991547
 C        -0.376597        -1.217206         0.375017
 C        -0.256688         0.078402        -0.425399
 O         0.365029         0.150536        -1.484479
 O        -0.837938         1.264245         0.046957
 C        -1.628739         1.303109         1.350926
 H        -3.826961         1.370043         2.637206
 H        -4.377688        -0.266542         2.798873
 H        -3.158461         0.461984         3.915225
 H        -3.877468        -1.264235         0.600734
 H        -3.025502        -0.119038        -0.561309
 H        -2.036903        -2.256061         1.443711
 H         0.403353        -1.143568         1.185694
 H        -0.118786        -2.086198        -0.300821
 H        -0.819395         1.451903         2.098765
 H        -2.277373         2.150782         1.214660
