19
Iteration:  4921
 C        -3.169427         0.200602         2.794998
 C        -2.567207         0.132613         1.416433
 C        -3.175702        -0.496723         0.290620
 C        -2.024045        -1.222731         0.988480
 C        -0.709412        -1.224233         0.355536
 C        -0.232396         0.030569        -0.376069
 O         0.345081         0.127511        -1.381166
 O        -0.602553         1.311617         0.176955
 C        -1.347421         1.149067         1.422053
 H        -3.878819         0.912105         3.040768
 H        -3.645890        -0.759829         2.984072
 H        -2.434218         0.236150         3.585171
 H        -4.230775        -0.733438         0.557630
 H        -2.892743        -0.059975        -0.736840
 H        -2.298111        -2.205288         1.517385
 H         0.120762        -1.330071         1.071548
 H        -0.561909        -2.007510        -0.425850
 H        -0.482870         0.970031         2.166821
 H        -1.633312         2.164403         1.685256
