19
Iteration:  2741
 C        -2.985820         0.212667         2.999823
 C        -2.490775         0.067691         1.577059
 C        -3.175213        -0.561123         0.376584
 C        -1.878422        -1.163946         1.049297
 C        -0.524419        -1.304735         0.283623
 C        -0.184857         0.071044        -0.354522
 O         0.689017         0.296585        -1.158193
 O        -1.024770         1.103831        -0.114492
 C        -1.833117         1.258655         1.108868
 H        -3.608605         1.208092         3.068681
 H        -3.596856        -0.624537         3.352465
 H        -2.161783         0.307389         3.747852
 H        -4.022611        -1.176679         0.446982
 H        -2.890357         0.037437        -0.497056
 H        -2.144493        -2.082663         1.628750
 H         0.332935        -1.708185         0.984424
 H        -0.528799        -2.004978        -0.579196
 H        -1.270280         1.724300         1.894724
 H        -2.627446         1.988762         0.713568
