19
Iteration:  3131charge 0 multiplicity 1
 C        -3.074212         0.253585         2.935285
 C        -2.464448         0.073092         1.508583
 C        -3.165312        -0.686968         0.410738
 C        -1.855562        -1.310544         1.046215
 C        -0.588126        -1.298717         0.210417
 C        -0.275332         0.162764        -0.429801
 O         0.651092         0.193342        -1.204491
 O        -0.945722         1.263312         0.014892
 C        -1.719998         1.297864         1.232216
 H        -2.914742        -0.505183         3.622979
 H        -2.808404         1.191219         3.431872
 H        -4.194687         0.285456         2.851347
 H        -4.085288        -1.171277         0.346227
 H        -2.917883        -0.041119        -0.490614
 H        -2.010633        -2.086196         1.847106
 H         0.316237        -1.661928         0.873740
 H        -0.507419        -1.845068        -0.711205
 H        -0.921200         1.515305         1.989341
 H        -2.288545         2.157666         1.195843
