19
Iteration:  1440
 C        -3.264844         0.235341         2.854534
 C        -2.396897         0.124185         1.535596
 C        -3.107987        -0.728600         0.466101
 C        -1.894990        -1.264778         1.118786
 C        -0.596021        -1.239393         0.386015
 C        -0.197870         0.156605        -0.369728
 O         0.517605         0.035859        -1.359507
 O        -0.853686         1.395144        -0.097039
 C        -1.586786         1.310718         1.259034
 H        -4.217412         0.757723         2.719611
 H        -3.460518        -0.700920         3.382558
 H        -2.749844         0.888494         3.562664
 H        -4.073987        -1.307513         0.672976
 H        -3.004567        -0.688868        -0.628618
 H        -2.033373        -2.072781         1.834968
 H         0.366132        -1.600847         0.980710
 H        -0.678037        -1.932878        -0.458368
 H        -0.819628         1.431265         2.002267
 H        -2.166327         2.245002         1.113241
