19
Iteration:  2265charge 0 multiplicity 1
 C        -3.158195         0.100408         2.884945
 C        -2.541984         0.143075         1.523418
 C        -3.138303        -0.819415         0.480152
 C        -1.941242        -1.181729         1.150699
 C        -0.582868        -1.130634         0.432218
 C        -0.222331         0.142861        -0.445812
 O         0.606196         0.165747        -1.329627
 O        -0.866890         1.288010        -0.061646
 C        -1.607089         1.330479         1.116306
 H        -3.695090         0.974879         3.206254
 H        -3.878030        -0.752906         2.826624
 H        -2.397576        -0.153760         3.686926
 H        -4.049499        -1.297457         0.588069
 H        -3.107874        -0.402802        -0.531667
 H        -1.977953        -1.965613         1.941060
 H         0.240177        -1.269593         1.099829
 H        -0.409882        -1.881378        -0.359689
 H        -0.810368         1.311762         1.867989
 H        -2.200996         2.202003         1.112353
