19
Iteration:  4918charge 0 multiplicity 1
 C        -3.204044         0.181842         2.806992
 C        -2.550193         0.127685         1.417790
 C        -3.157689        -0.477519         0.287560
 C        -2.026112        -1.186996         0.985211
 C        -0.693212        -1.214980         0.370658
 C        -0.234337         0.040059        -0.357008
 O         0.338700         0.120711        -1.399104
 O        -0.610863         1.273682         0.153111
 C        -1.341088         1.150678         1.437410
 H        -3.917810         0.966211         3.018711
 H        -3.640840        -0.821817         2.939529
 H        -2.369634         0.224827         3.508057
 H        -4.220947        -0.616552         0.543947
 H        -2.932513        -0.132658        -0.694742
 H        -2.206685        -2.106996         1.526785
 H         0.201698        -1.398663         1.050123
 H        -0.577928        -1.963787        -0.477567
 H        -0.526177         0.951814         2.243593
 H        -1.739479         2.179390         1.776760
