19
Iteration:  3816
 C        -3.219877        -0.018548         2.822148
 C        -2.439144         0.245811         1.518176
 C        -3.224684        -0.322103         0.329009
 C        -2.137301        -1.135590         0.996454
 C        -0.691522        -1.192948         0.293830
 C        -0.257614         0.064283        -0.401965
 O         0.427975        -0.066947        -1.377192
 O        -0.580277         1.299449         0.127492
 C        -1.355609         1.230877         1.419669
 H        -4.254360        -0.293617         2.852795
 H        -2.702818        -0.866048         3.338047
 H        -3.239971         0.817993         3.535719
 H        -4.268603        -0.487715         0.368417
 H        -2.935710        -0.224348        -0.767478
 H        -2.212350        -1.954480         1.592536
 H         0.216427        -1.416837         0.886639
 H        -0.651170        -1.948372        -0.446960
 H        -0.599318         0.950020         2.227167
 H        -1.766108         2.283809         1.565067
