19
Iteration:   154
 C        -3.424413         0.168523         2.915492
 C        -2.551767         0.085130         1.642976
 C        -3.186321        -0.440766         0.335800
 C        -2.052210        -1.150291         0.929417
 C        -0.562152        -1.216237         0.301234
 C        -0.153212         0.083159        -0.453413
 O         0.461202         0.028272        -1.468298
 O        -0.619883         1.277065         0.114566
 C        -1.350466         1.218703         1.419394
 H        -3.551916        -0.905161         3.051777
 H        -3.051549         0.567433         3.857492
 H        -4.426118         0.521786         2.632276
 H        -4.156344        -0.933411         0.258520
 H        -2.894044         0.209748        -0.435091
 H        -2.306723        -2.092687         1.562680
 H         0.176011        -1.321176         1.182397
 H        -0.395938        -2.001311        -0.425819
 H        -0.583592         0.887731         2.167292
 H        -1.661234         2.243690         1.598333
