19
Iteration:  2858
 C        -3.120533         0.050898         2.948266
 C        -2.364036         0.070252         1.545472
 C        -3.016786        -0.670434         0.292069
 C        -1.873162        -1.213772         1.032464
 C        -0.530657        -1.189895         0.463074
 C        -0.285862         0.083588        -0.358785
 O         0.481820         0.101289        -1.317471
 O        -0.886994         1.303417        -0.022659
 C        -1.787123         1.446961         1.148064
 H        -4.045096         0.570585         2.909147
 H        -3.223856        -0.963811         3.391028
 H        -2.537350         0.599539         3.762215
 H        -4.002479        -1.021389         0.405418
 H        -2.728486        -0.188120        -0.706988
 H        -2.163993        -2.043056         1.720521
 H         0.163087        -1.279208         1.269080
 H        -0.292715        -2.008787        -0.174149
 H        -1.126782         1.836891         1.980144
 H        -2.584345         2.129830         0.919144
