19
Iteration:  1575
 C        -3.197325         0.035533         2.911457
 C        -2.521091         0.130928         1.518134
 C        -3.186845        -0.645009         0.459700
 C        -1.838131        -1.127506         1.098052
 C        -0.510405        -1.138116         0.403130
 C        -0.224801         0.100473        -0.391743
 O         0.540975        -0.028514        -1.339981
 O        -0.794514         1.296808        -0.092055
 C        -1.694616         1.422949         1.202782
 H        -3.980892         0.827773         2.873031
 H        -3.674389        -0.900995         3.183682
 H        -2.479348         0.457116         3.606144
 H        -3.963559        -1.321250         0.755922
 H        -3.122112        -0.480005        -0.590757
 H        -1.912197        -1.893128         1.905591
 H         0.451043        -1.253530         1.089537
 H        -0.383080        -1.920306        -0.415398
 H        -1.177463         1.727767         2.080553
 H        -2.382664         2.151445         0.886461
