19
Iteration:  1738charge 0 multiplicity 1
 C        -3.182146         0.144198         2.841450
 C        -2.392649         0.111460         1.525983
 C        -3.029299        -0.713161         0.201928
 C        -1.891374        -1.235271         1.072476
 C        -0.450253        -1.151939         0.655466
 C        -0.303151         0.118560        -0.367564
 O         0.242931         0.038469        -1.466816
 O        -0.762799         1.334621         0.103779
 C        -1.612851         1.345335         1.183670
 H        -3.864507         1.018832         2.981859
 H        -3.711468        -0.805375         2.867543
 H        -2.452525         0.110728         3.653489
 H        -3.906173        -1.332223         0.370651
 H        -2.734575        -0.367973        -0.821491
 H        -2.203492        -1.977723         1.867151
 H         0.133715        -1.004034         1.468815
 H         0.033737        -1.936230         0.022727
 H        -1.092626         1.790227         2.098479
 H        -2.310969         2.142574         0.820134
