19
Iteration:  2590charge 0 multiplicity 1
 C        -3.232614         0.176530         2.734283
 C        -2.486940         0.094204         1.435314
 C        -3.029581        -0.768897         0.290541
 C        -1.864207        -1.163011         1.230273
 C        -0.483138        -1.058666         0.522673
 C        -0.257575         0.104844        -0.406055
 O         0.271048         0.112699        -1.505157
 O        -0.796782         1.274712         0.118811
 C        -1.486280         1.243390         1.301487
 H        -4.026891         0.995547         2.904496
 H        -3.913328        -0.692481         2.790321
 H        -2.714041         0.181108         3.689068
 H        -4.085660        -0.988891         0.384939
 H        -2.856893        -0.560075        -0.701191
 H        -1.979591        -1.977356         2.000243
 H         0.260829        -0.945986         1.255583
 H        -0.282877        -1.980488        -0.042550
 H        -0.686831         1.018589         2.051754
 H        -1.985352         2.251746         1.424996
