19
Iteration:  1101charge 0 multiplicity 1
 C        -2.950844         0.444230         2.970614
 C        -2.483963         0.070978         1.476664
 C        -3.273798        -0.902263         0.627657
 C        -1.936981        -1.330296         1.018379
 C        -0.808595        -1.235130         0.040233
 C        -0.178881         0.154417        -0.323216
 O         0.640642         0.250874        -1.176162
 O        -0.536053         1.230613         0.370838
 C        -1.884770         1.249366         0.752298
 H        -3.968024         0.982417         2.898934
 H        -3.064839        -0.354078         3.767809
 H        -2.230870         1.264326         3.298825
 H        -4.012358        -1.498647         1.068450
 H        -3.410700        -0.612819        -0.405446
 H        -1.934989        -2.048311         1.814167
 H         0.077741        -1.774598         0.320219
 H        -1.134727        -1.548650        -0.916345
 H        -2.084975         2.163491         1.341629
 H        -2.439103         1.345529        -0.148528
