19
Iteration:  4808
 C        -3.157651         0.178337         2.815770
 C        -2.515853         0.153616         1.499094
 C        -3.112793        -0.518180         0.203039
 C        -2.067712        -1.304297         0.945463
 C        -0.713281        -1.205830         0.403960
 C        -0.221545         0.127349        -0.403256
 O         0.282165         0.128432        -1.459181
 O        -0.521253         1.267277         0.236630
 C        -1.401158         1.186505         1.424874
 H        -3.533142         1.133270         2.839460
 H        -3.908833        -0.515069         3.143244
 H        -2.388854         0.181305         3.587999
 H        -4.062733        -0.921198         0.325291
 H        -2.973075        -0.168973        -0.802023
 H        -2.459833        -2.008883         1.586122
 H        -0.059713        -1.503810         1.265490
 H        -0.591945        -2.042933        -0.296417
 H        -0.771026         0.976877         2.391389
 H        -1.904967         2.169214         1.733548
