19
Iteration:   322charge 0 multiplicity 1
 C        -2.870594         0.279394         3.076968
 C        -2.460699         0.129164         1.568828
 C        -3.308803        -0.541329         0.553369
 C        -1.995661        -1.248188         0.836884
 C        -0.815836        -1.292136        -0.207973
 C        -0.157078         0.052661        -0.293914
 O         0.888094         0.133728        -0.854387
 O        -0.868832         1.150232         0.012367
 C        -1.830080         1.324466         1.059418
 H        -2.640126         1.242809         3.374478
 H        -3.942983         0.193607         2.973223
 H        -2.459298        -0.456849         3.750170
 H        -4.290192        -0.944739         0.962729
 H        -3.382538        -0.032950        -0.429459
 H        -1.956858        -2.189213         1.462269
 H        -0.112642        -2.022087         0.077085
 H        -1.166365        -1.601807        -1.208392
 H        -1.263700         1.856144         1.759709
 H        -2.576073         1.997584         0.531586
