19
Iteration:  3412
 C        -3.225185         0.093515         2.795966
 C        -2.437768         0.222216         1.497597
 C        -3.192788        -0.495347         0.326955
 C        -2.052050        -1.210915         0.944378
 C        -0.670294        -1.161509         0.330114
 C        -0.250193         0.145000        -0.396359
 O         0.425379         0.015683        -1.411242
 O        -0.727457         1.311696         0.146142
 C        -1.331952         1.164087         1.432833
 H        -2.507700         0.063668         3.671171
 H        -3.745947         1.083096         3.018122
 H        -3.857335        -0.810618         2.802667
 H        -4.145840        -0.970811         0.445868
 H        -3.093838        -0.227432        -0.723503
 H        -2.205410        -1.987583         1.734401
 H        -0.033292        -1.374704         1.287207
 H        -0.307666        -1.878291        -0.415351
 H        -0.551577         0.650153         2.131606
 H        -1.560306         2.174095         1.990408
