19
Iteration:  3813
 C        -3.207219        -0.044111         2.824375
 C        -2.443264         0.250325         1.469628
 C        -3.199432        -0.301699         0.345162
 C        -2.112070        -1.108594         0.996633
 C        -0.700583        -1.178748         0.289846
 C        -0.253238         0.038021        -0.388484
 O         0.400712        -0.071872        -1.365327
 O        -0.590928         1.299712         0.130343
 C        -1.377926         1.248227         1.435092
 H        -4.311861        -0.309746         2.722806
 H        -2.738375        -0.851667         3.379927
 H        -3.213091         0.863790         3.473819
 H        -4.266797        -0.589442         0.348950
 H        -2.864689        -0.273342        -0.697239
 H        -2.279249        -1.988423         1.653998
 H         0.239877        -1.538495         0.920835
 H        -0.605166        -1.939062        -0.550159
 H        -0.511448         0.927357         2.113969
 H        -1.642900         2.256424         1.611860
