19
Iteration:   171
 C        -3.284126         0.021435         2.927292
 C        -2.512120         0.170411         1.518581
 C        -3.282618        -0.444144         0.306920
 C        -2.095511        -1.189995         0.958492
 C        -0.740051        -1.091541         0.364575
 C        -0.145650         0.092935        -0.415958
 O         0.596497         0.033664        -1.370863
 O        -0.642114         1.278827         0.053961
 C        -1.350541         1.170535         1.363859
 H        -3.454308        -1.041703         3.377437
 H        -2.645329         0.609239         3.608819
 H        -4.214613         0.599398         2.947040
 H        -4.273929        -0.776667         0.602264
 H        -3.306833        -0.115771        -0.787117
 H        -2.262374        -2.122713         1.402504
 H        -0.058925        -1.215602         1.180632
 H        -0.680896        -1.966806        -0.331186
 H        -0.547665         1.094019         2.137843
 H        -1.651297         2.221138         1.527063
