19
Iteration:  4555charge 0 multiplicity 1
 C        -3.155182         0.245508         2.843167
 C        -2.406155         0.025562         1.606325
 C        -3.116449        -0.421588         0.214882
 C        -2.027668        -1.264992         0.932879
 C        -0.685860        -1.262289         0.269567
 C        -0.346923         0.031572        -0.400421
 O         0.431890         0.170737        -1.371314
 O        -0.738398         1.236915         0.159319
 C        -1.374720         1.175942         1.460742
 H        -4.079758         0.852614         2.769632
 H        -3.522910        -0.734627         3.249273
 H        -2.663454         0.716274         3.724810
 H        -4.156281        -0.626886         0.411910
 H        -2.781543         0.146992        -0.665183
 H        -2.464518        -2.175735         1.421588
 H         0.057099        -1.346230         1.054230
 H        -0.472790        -2.061126        -0.438966
 H        -0.589865         1.204712         2.170344
 H        -1.827885         2.180291         1.453763
