19
Iteration:  1069
 C        -2.642466         0.234546         2.875235
 C        -2.620390         0.209235         1.351194
 C        -3.396240        -0.886738         0.717080
 C        -1.933117        -1.150766         1.013360
 C        -0.811659        -1.244424         0.082142
 C        -0.139260         0.126121        -0.377217
 O         0.867758         0.205818        -1.070491
 O        -0.645569         1.187319         0.435413
 C        -2.169578         1.365299         0.619500
 H        -3.620326         0.625669         3.319413
 H        -2.387146        -0.701955         3.435977
 H        -1.834833         0.921412         3.258663
 H        -3.927687        -1.577396         1.258965
 H        -3.905315        -0.719586        -0.222026
 H        -2.022115        -1.794792         1.833023
 H        -0.037318        -1.914535         0.521140
 H        -1.162413        -1.813605        -0.757601
 H        -2.220016         2.272019         1.297626
 H        -2.630219         1.617137        -0.255444
