19
Iteration:  3153charge 0 multiplicity 1
 C        -3.049905         0.210604         2.941216
 C        -2.436322         0.073094         1.543707
 C        -3.051485        -0.649199         0.248381
 C        -1.854052        -1.249177         1.077181
 C        -0.662968        -1.272987         0.211965
 C        -0.218823         0.050329        -0.290093
 O         0.511200         0.196930        -1.197788
 O        -0.862170         1.242520         0.031574
 C        -1.793572         1.377137         1.202450
 H        -2.360621        -0.187544         3.603622
 H        -3.137174         1.249919         3.250530
 H        -4.052333        -0.241990         3.163870
 H        -3.954753        -1.098248         0.529250
 H        -2.858522        -0.236320        -0.789542
 H        -2.027004        -2.287321         1.479648
 H         0.289739        -1.736071         0.758711
 H        -0.698575        -1.892790        -0.662920
 H        -1.080353         1.821193         1.968044
 H        -2.462644         2.140539         1.032137
