19
Iteration:  4856charge 0 multiplicity 1
 C        -3.309040         0.114163         2.789994
 C        -2.358735         0.093691         1.631291
 C        -3.076794        -0.310526         0.269683
 C        -1.998826        -1.214423         0.942307
 C        -0.576223        -1.185955         0.412969
 C        -0.203026         0.010891        -0.369581
 O         0.254324         0.061805        -1.530411
 O        -0.703300         1.238246         0.152842
 C        -1.350835         1.197610         1.454523
 H        -3.791103         1.162900         2.903177
 H        -4.140455        -0.640583         2.703029
 H        -2.824708        -0.098298         3.785043
 H        -4.152409        -0.664452         0.144926
 H        -2.691206         0.395802        -0.499618
 H        -2.368220        -2.258244         1.229792
 H         0.013252        -1.263456         1.309032
 H        -0.494082        -2.175752        -0.056045
 H        -0.699407         1.210902         2.333563
 H        -1.945770         2.101366         1.495302
