19
Iteration:   355
 C        -2.813820         0.044442         3.023745
 C        -2.539937         0.122617         1.552271
 C        -3.444679        -0.590292         0.535663
 C        -2.072983        -1.149245         0.932743
 C        -0.845257        -1.240812         0.068808
 C        -0.178730         0.100001        -0.339746
 O         0.907997         0.134634        -0.952784
 O        -0.707922         1.270060        -0.054801
 C        -1.773410         1.318762         0.949978
 H        -2.049391         0.337008         3.701886
 H        -3.649794         0.770751         3.175756
 H        -3.232571        -0.913526         3.278857
 H        -4.368187        -1.078261         0.998195
 H        -3.560777        -0.129918        -0.453691
 H        -2.052444        -2.047552         1.582134
 H        -0.099152        -1.701193         0.648445
 H        -0.953359        -1.878427        -0.816642
 H        -1.412178         1.965102         1.709843
 H        -2.541578         1.976531         0.508999
