19
Iteration:  2136charge 0 multiplicity 1
 C        -3.463200         0.296154         2.692943
 C        -2.392051         0.029846         1.618455
 C        -2.871148        -0.697723         0.360436
 C        -1.786614        -1.339158         1.137195
 C        -0.406313        -1.104120         0.588809
 C        -0.347942         0.166693        -0.444006
 O         0.235062         0.168105        -1.540443
 O        -0.860040         1.239438         0.016420
 C        -1.472821         1.184238         1.356145
 H        -3.972823         1.172870         2.334927
 H        -4.134664        -0.552879         2.971465
 H        -2.902404         0.629088         3.619168
 H        -3.901571        -1.124445         0.528737
 H        -2.574588        -0.402142        -0.630271
 H        -1.979938        -2.292959         1.717209
 H         0.359610        -0.794998         1.422618
 H        -0.084676        -1.966234         0.011972
 H        -0.604334         1.312124         2.053167
 H        -2.094421         2.103532         1.513419
