19
Iteration:  4980
 C        -3.229053         0.129934         2.964836
 C        -2.412520         0.136545         1.641799
 C        -3.175966        -0.391325         0.328172
 C        -1.989504        -1.163538         0.940847
 C        -0.648244        -1.342208         0.203419
 C        -0.196640        -0.011924        -0.444109
 O         0.523709         0.173391        -1.335819
 O        -0.705593         1.166251         0.088609
 C        -1.528349         1.301574         1.379603
 H        -3.721887         1.222276         2.991160
 H        -4.056387        -0.623082         2.867501
 H        -2.589069         0.016336         3.901548
 H        -4.241372        -0.682785         0.364366
 H        -3.083903         0.112322        -0.616093
 H        -2.154503        -2.047604         1.565239
 H         0.024034        -1.943746         0.775238
 H        -0.918862        -2.071461        -0.549399
 H        -0.796642         1.502241         2.229108
 H        -2.139328         2.210068         1.139922
