19
Iteration:  1276charge 0 multiplicity 1
 C        -3.202432         0.219176         2.782067
 C        -2.351338         0.021178         1.587497
 C        -3.067734        -0.582346         0.385883
 C        -1.939592        -1.255104         1.136702
 C        -0.559673        -1.067293         0.540386
 C        -0.352839         0.122671        -0.458109
 O         0.506732         0.104827        -1.274238
 O        -1.028677         1.231748        -0.168381
 C        -1.420374         1.197674         1.242902
 H        -3.974062         0.936129         2.505573
 H        -3.761152        -0.705061         2.967762
 H        -2.682822         0.592107         3.658674
 H        -4.039674        -1.039284         0.402069
 H        -2.796164        -0.237649        -0.621539
 H        -1.969799        -2.097265         1.852750
 H         0.251926        -0.978422         1.235193
 H        -0.394200        -1.951687        -0.004520
 H        -0.524735         1.046551         1.910291
 H        -1.800864         2.214815         1.448055
