19
Iteration:  3329
 C        -3.159903         0.121073         2.785437
 C        -2.490037         0.155665         1.425770
 C        -3.113435        -0.562759         0.268963
 C        -1.954274        -1.216651         1.002561
 C        -0.600508        -1.183049         0.382034
 C        -0.179277         0.069233        -0.301047
 O         0.253958         0.082522        -1.457856
 O        -0.632532         1.286961         0.194777
 C        -1.504981         1.272444         1.421952
 H        -3.756705        -0.768934         2.819598
 H        -2.500766         0.080703         3.690485
 H        -3.897579         0.977079         2.955175
 H        -4.088498        -0.932955         0.516411
 H        -2.979669        -0.096454        -0.765797
 H        -2.193474        -2.087099         1.565825
 H         0.074060        -1.448526         1.217608
 H        -0.519847        -1.945959        -0.405719
 H        -0.838165         1.259105         2.358079
 H        -1.974558         2.220921         1.313167
