19
Iteration:  3820charge 0 multiplicity 1
 C        -3.220708         0.018720         2.837307
 C        -2.455400         0.216592         1.567795
 C        -3.237527        -0.348534         0.291040
 C        -2.137880        -1.155324         0.980778
 C        -0.700611        -1.202537         0.303468
 C        -0.265810         0.091007        -0.415233
 O         0.465473        -0.052655        -1.399294
 O        -0.574349         1.293106         0.130067
 C        -1.320046         1.226494         1.406325
 H        -4.278220        -0.306172         2.873118
 H        -2.686131        -0.818911         3.306320
 H        -3.222014         0.803567         3.602901
 H        -4.347183        -0.422312         0.463530
 H        -3.037050        -0.068265        -0.733236
 H        -2.239245        -2.088027         1.668110
 H         0.139492        -1.294018         0.973591
 H        -0.719753        -2.043998        -0.424681
 H        -0.745702         1.057280         2.306202
 H        -1.821752         2.217313         1.495662
