19
Iteration:  4682charge 0 multiplicity 1
 C        -3.024806         0.188026         2.979127
 C        -2.520053         0.030106         1.597988
 C        -3.236862        -0.320121         0.292833
 C        -2.083972        -1.198748         0.843166
 C        -0.662466        -1.247140         0.319543
 C        -0.213667         0.043851        -0.429897
 O         0.607758         0.184366        -1.296604
 O        -0.757134         1.180965         0.034846
 C        -1.528753         1.097805         1.365141
 H        -3.345629         1.161033         3.318036
 H        -3.951057        -0.337185         3.207136
 H        -2.319326        -0.081977         3.743729
 H        -4.218484        -0.787193         0.320232
 H        -3.281401         0.379137        -0.569500
 H        -2.640844        -2.034445         1.240322
 H         0.061693        -1.397702         1.162995
 H        -0.494892        -2.085258        -0.389006
 H        -0.817443         1.285470         2.244404
 H        -2.110488         1.962781         1.177263
