19
Iteration:  3704
 C        -3.304388         0.124078         2.815038
 C        -2.386261         0.197000         1.482418
 C        -3.102431        -0.348535         0.177066
 C        -2.035369        -1.212392         1.074502
 C        -0.832757        -1.230506         0.281153
 C        -0.293079         0.034959        -0.420901
 O         0.337509         0.098879        -1.460210
 O        -0.544936         1.180935         0.274457
 C        -1.246509         1.186532         1.497554
 H        -3.378191        -0.855634         3.397718
 H        -2.839679         0.814010         3.489489
 H        -4.258718         0.474256         2.428991
 H        -4.225426        -0.524087         0.314706
 H        -2.775116        -0.058314        -0.783920
 H        -2.512126        -1.998293         1.744037
 H         0.099629        -1.449812         0.778821
 H        -1.149280        -1.950486        -0.499577
 H        -0.473710         0.922184         2.302967
 H        -1.515341         2.173203         1.803637
