19
Iteration:  1511
 C        -3.044952         0.313648         2.971973
 C        -2.461599         0.014344         1.576142
 C        -3.125541        -0.544438         0.358662
 C        -1.881901        -1.286295         0.928815
 C        -0.456763        -1.121563         0.439532
 C        -0.193952         0.117309        -0.270200
 O         0.546247         0.096335        -1.257771
 O        -1.004273         1.159321        -0.124027
 C        -1.746464         1.241602         1.142995
 H        -3.327822         1.393593         2.996735
 H        -4.015028        -0.178194         3.161722
 H        -2.499900         0.095788         3.928825
 H        -3.992656        -1.104242         0.555325
 H        -3.180196        -0.234354        -0.666455
 H        -2.133381        -2.215745         1.477913
 H         0.051769        -1.480188         1.368960
 H        -0.109403        -1.826010        -0.386320
 H        -0.884325         1.601798         1.889771
 H        -2.410330         2.075005         0.889469
