19
Iteration:  4430charge 0 multiplicity 1
 C        -3.244165         0.091203         2.765664
 C        -2.439588         0.126124         1.495279
 C        -3.135166        -0.469562         0.301302
 C        -2.028493        -1.169598         1.011264
 C        -0.673062        -1.153782         0.368322
 C        -0.199936         0.018357        -0.435417
 O         0.339694         0.141029        -1.501531
 O        -0.627030         1.202876         0.222639
 C        -1.407466         1.218361         1.469369
 H        -3.759510         1.093554         3.003425
 H        -4.156905        -0.585965         2.845871
 H        -2.716778        -0.184219         3.714571
 H        -4.220682        -0.749814         0.437470
 H        -2.886700        -0.195699        -0.752869
 H        -2.279323        -2.035640         1.587984
 H         0.131885        -1.072226         1.175249
 H        -0.489708        -2.056581        -0.256476
 H        -0.615720         1.114053         2.210212
 H        -1.634990         2.275074         1.668211
