19
Iteration:  1203
 C        -3.060597         0.253021         3.006666
 C        -2.411743         0.057041         1.542775
 C        -3.186674        -0.703436         0.438281
 C        -1.970150        -1.309775         0.975245
 C        -0.574642        -1.284261         0.354936
 C        -0.251239         0.095573        -0.371034
 O         0.528090         0.083566        -1.288419
 O        -0.638788         1.337558         0.072015
 C        -1.825118         1.410868         1.027372
 H        -3.778614         1.138098         2.769309
 H        -3.789743        -0.541280         3.267866
 H        -2.370882         0.620461         3.798590
 H        -4.129279        -1.236860         0.628170
 H        -3.157652        -0.219189        -0.595594
 H        -2.063389        -2.159130         1.665567
 H         0.139265        -1.484718         1.231013
 H        -0.334093        -1.991483        -0.504366
 H        -1.469501         2.099458         1.825144
 H        -2.663744         1.844393         0.574436
