19
Iteration:  3741
 C        -3.269767         0.322600         2.865630
 C        -2.445532         0.056971         1.541130
 C        -3.216953        -0.305987         0.255300
 C        -2.093955        -1.258998         0.803267
 C        -0.624015        -1.234179         0.309371
 C        -0.236515         0.086612        -0.391572
 O         0.327214         0.079082        -1.473105
 O        -0.592934         1.184482         0.251402
 C        -1.272029         1.080361         1.563697
 H        -3.735085        -0.537068         3.322152
 H        -2.728187         0.930151         3.675455
 H        -4.067398         1.034814         2.567285
 H        -4.140449        -0.816276         0.507598
 H        -3.212211         0.021223        -0.838356
 H        -2.239249        -2.251009         1.123794
 H        -0.000324        -1.476897         1.147600
 H        -0.385994        -2.018196        -0.368345
 H        -0.585351         0.748611         2.341394
 H        -1.509203         2.214392         1.592379
