19
Iteration:    81
 C        -3.389855         0.233942         2.628444
 C        -2.472035         0.101914         1.412282
 C        -3.045664        -0.574772         0.187063
 C        -1.937632        -1.161842         0.955943
 C        -0.474041        -1.053330         0.475179
 C        -0.256998         0.120182        -0.368771
 O        -0.067144         0.008910        -1.534951
 O        -0.424907         1.256918         0.386512
 C        -1.296051         1.094239         1.526534
 H        -4.330528        -0.218327         2.361136
 H        -2.967976        -0.297583         3.572263
 H        -3.623167         1.306053         2.928637
 H        -4.042704        -1.081812         0.158312
 H        -2.755220        -0.057939        -0.701361
 H        -2.080846        -2.059469         1.742978
 H         0.110715        -1.012768         1.400098
 H        -0.181253        -1.836482        -0.202176
 H        -0.807961         0.819535         2.499381
 H        -1.745752         2.098246         1.699609
