19
Iteration:   304charge 0 multiplicity 1
 C        -2.909240         0.268318         3.021759
 C        -2.469442         0.042626         1.573885
 C        -3.333170        -0.681593         0.459921
 C        -2.012786        -1.201124         0.974070
 C        -0.997612        -1.230518        -0.129796
 C        -0.163992         0.058614        -0.393082
 O         0.952914         0.126383        -0.814918
 O        -0.831270         1.235909        -0.057281
 C        -1.718365         1.349137         1.079066
 H        -2.932405         1.451885         3.205072
 H        -3.827181        -0.159625         3.404667
 H        -2.073532        -0.086494         3.641258
 H        -4.125534        -1.401465         0.778585
 H        -3.272872        -0.202358        -0.498202
 H        -2.021501        -2.078877         1.505360
 H        -0.267647        -2.048444        -0.101328
 H        -1.488876        -1.399427        -1.145565
 H        -1.068273         1.660147         1.985101
 H        -2.361751         2.238387         1.049911
