19
Iteration:  3592charge 0 multiplicity 1
 C        -3.247813         0.117872         2.884186
 C        -2.413913         0.118730         1.571960
 C        -3.190000        -0.277109         0.362280
 C        -2.074833        -1.140026         0.881391
 C        -0.704143        -1.309682         0.214521
 C        -0.228823         0.049019        -0.369373
 O         0.528296         0.026491        -1.329298
 O        -0.770934         1.222464         0.075021
 C        -1.317223         1.215247         1.458564
 H        -4.345094        -0.010960         2.749470
 H        -2.826213        -0.710880         3.475830
 H        -3.125808         1.072329         3.480108
 H        -4.172276        -0.527657         0.718257
 H        -2.999073         0.346106        -0.579364
 H        -2.508664        -2.102371         1.177122
 H         0.103852        -1.664264         0.872784
 H        -0.804867        -1.974630        -0.690121
 H        -0.388204         1.131844         2.136083
 H        -1.689235         2.204305         1.572142
