19
Iteration:    37charge 0 multiplicity 1
 C        -3.359988         0.095179         2.721728
 C        -2.425347         0.087486         1.558312
 C        -2.895896        -0.357099         0.175480
 C        -1.918036        -1.177746         0.983917
 C        -0.532958        -1.238514         0.463284
 C        -0.256647         0.063243        -0.294109
 O         0.073379         0.049859        -1.467800
 O        -0.629076         1.239379         0.208473
 C        -1.421059         1.233331         1.406245
 H        -4.339950        -0.185606         2.414830
 H        -3.053347        -0.496837         3.683268
 H        -3.485292         1.200352         3.045787
 H        -3.907396        -0.616395        -0.074933
 H        -2.362500         0.202203        -0.588743
 H        -2.199386        -2.147402         1.607411
 H         0.210328        -1.390762         1.251862
 H        -0.393449        -2.087400        -0.181635
 H        -0.668582         1.236392         2.283640
 H        -1.957750         2.222179         1.415996
