19
Iteration:  3021
 C        -3.137854         0.120285         2.808628
 C        -2.468818         0.015112         1.510184
 C        -3.109422        -0.691646         0.337788
 C        -1.840753        -1.193452         1.030703
 C        -0.411468        -1.089615         0.514955
 C        -0.233110         0.106968        -0.346461
 O         0.322632         0.085278        -1.400381
 O        -0.778640         1.299989         0.096213
 C        -1.737517         1.343210         1.191799
 H        -4.139654         0.394467         2.643236
 H        -2.970243        -0.814938         3.363313
 H        -2.635719         0.934480         3.416642
 H        -4.082386        -1.242529         0.442168
 H        -3.038735        -0.225368        -0.597167
 H        -1.987229        -2.210633         1.512313
 H         0.299758        -1.020930         1.393147
 H        -0.087977        -1.887051        -0.129417
 H        -1.134644         1.533559         2.107015
 H        -2.425576         2.083605         1.027906
