19
Iteration:  4059
 C        -3.320986         0.169002         2.812598
 C        -2.417720         0.089367         1.591590
 C        -3.027257        -0.273960         0.267452
 C        -1.996136        -1.201333         0.965938
 C        -0.649319        -1.286803         0.271463
 C        -0.174388         0.093701        -0.346429
 O         0.350806         0.065938        -1.448127
 O        -0.743581         1.177106         0.124210
 C        -1.381995         1.166880         1.519911
 H        -4.390818         0.091488         2.737603
 H        -3.240806        -0.674313         3.519697
 H        -3.246043         0.999928         3.471224
 H        -4.019979        -0.513122         0.405082
 H        -2.673220         0.392825        -0.484728
 H        -2.479204        -2.157734         1.342718
 H         0.216445        -1.639487         0.955934
 H        -0.591122        -1.863224        -0.692481
 H        -0.639925         1.223139         2.304738
 H        -1.797579         2.203083         1.516645
