19
Iteration:  3324charge 0 multiplicity 1
 C        -3.197965         0.141915         2.774328
 C        -2.518924         0.115374         1.434162
 C        -3.145487        -0.557611         0.274297
 C        -1.989807        -1.206505         1.040330
 C        -0.577926        -1.169481         0.400711
 C        -0.188876         0.093674        -0.363316
 O         0.281459         0.097369        -1.463934
 O        -0.589559         1.275751         0.164049
 C        -1.483715         1.272604         1.465219
 H        -3.840979        -0.789849         2.753675
 H        -2.434701        -0.195667         3.534331
 H        -3.890394         0.900836         3.100048
 H        -4.124418        -1.004833         0.560627
 H        -3.074277        -0.227044        -0.715485
 H        -2.182451        -2.085670         1.722733
 H         0.073753        -1.399886         1.247606
 H        -0.436217        -1.944063        -0.358310
 H        -0.721717         1.258852         2.200790
 H        -1.967453         2.282156         1.325687
