19
Iteration:  2598charge 0 multiplicity 1
 C        -3.350217         0.233857         2.742852
 C        -2.485204         0.066764         1.495286
 C        -3.049233        -0.699288         0.340550
 C        -1.800519        -1.212195         1.186976
 C        -0.426315        -1.068983         0.458899
 C        -0.314294         0.090052        -0.438434
 O         0.311285         0.125800        -1.483840
 O        -0.797805         1.241724         0.102520
 C        -1.507262         1.219452         1.329676
 H        -3.752025         1.245033         2.738078
 H        -3.983704        -0.629752         2.775511
 H        -2.643465         0.196285         3.554016
 H        -3.966535        -1.233384         0.669919
 H        -2.896449        -0.393886        -0.655064
 H        -1.824112        -2.078755         1.845444
 H         0.375425        -1.009615         1.220339
 H        -0.237616        -1.956819        -0.100698
 H        -0.839371         1.254691         2.203361
 H        -2.020506         2.208506         1.340116
