19
Iteration:  2224
 C        -3.144409         0.219317         2.823252
 C        -2.408633        -0.002617         1.583229
 C        -3.055671        -0.632102         0.347574
 C        -1.846808        -1.261960         1.038553
 C        -0.457808        -1.138004         0.426371
 C        -0.218168         0.098373        -0.362876
 O         0.346506         0.117415        -1.406506
 O        -0.784051         1.236691         0.171916
 C        -1.773773         1.301383         1.114799
 H        -4.098721         0.702767         2.761005
 H        -3.155679        -0.690101         3.437638
 H        -2.622898         0.894519         3.559117
 H        -3.957094        -1.142685         0.506315
 H        -3.011845         0.185517        -0.446816
 H        -2.218021        -2.272795         1.310512
 H         0.181458        -0.998731         1.283163
 H        -0.162318        -2.044060         0.006706
 H        -1.406253         1.744277         2.015851
 H        -2.445352         1.976019         0.555130
