19
Iteration:  1237charge 0 multiplicity 1
 C        -3.134840         0.104501         2.970664
 C        -2.538651         0.156089         1.535149
 C        -3.180390        -0.544115         0.366038
 C        -1.878976        -1.057249         1.030418
 C        -0.518065        -1.130285         0.472415
 C        -0.208173         0.008435        -0.428466
 O         0.584726         0.073175        -1.312662
 O        -0.952501         1.113234        -0.093547
 C        -1.598808         1.319121         1.209806
 H        -4.130001         0.633884         2.860404
 H        -3.266150        -0.901074         3.403863
 H        -2.558583         0.677228         3.739788
 H        -3.992531        -1.252269         0.400430
 H        -3.059049         0.034418        -0.614443
 H        -2.185006        -1.924457         1.603426
 H         0.264551        -1.216022         1.306804
 H        -0.276616        -2.037667        -0.201894
 H        -0.829324         1.524868         1.965342
 H        -2.152709         2.235298         1.043110
