19
Iteration:  3287
 C        -3.386929         0.176596         2.862714
 C        -2.460965         0.083529         1.654810
 C        -3.116607        -0.532088         0.341318
 C        -1.951043        -1.229503         0.975024
 C        -0.582930        -1.101248         0.357596
 C        -0.211893         0.123589        -0.465454
 O         0.434763         0.108093        -1.472274
 O        -0.717766         1.219421         0.064266
 C        -1.433756         1.180445         1.422937
 H        -4.423284         0.069083         2.522529
 H        -3.123765        -0.664853         3.449887
 H        -3.192152         1.001832         3.527464
 H        -4.045399        -1.055989         0.490988
 H        -3.026931        -0.036190        -0.682128
 H        -2.083277        -2.143646         1.505731
 H         0.204370        -0.979670         1.191310
 H        -0.269453        -2.047201        -0.189496
 H        -0.650494         1.081736         2.242106
 H        -1.893242         2.158416         1.561359
