19
Iteration:  3417charge 0 multiplicity 1
 C        -3.177344         0.110549         2.820122
 C        -2.438234         0.159566         1.461409
 C        -3.200097        -0.494880         0.287886
 C        -2.082444        -1.218443         0.969506
 C        -0.707885        -1.154053         0.342775
 C        -0.243450         0.141265        -0.392431
 O         0.415993         0.030583        -1.374456
 O        -0.726683         1.326509         0.107304
 C        -1.313892         1.143407         1.482348
 H        -2.563544         0.237971         3.707999
 H        -3.808580         0.997629         2.907237
 H        -3.652326        -0.890284         2.824958
 H        -4.238432        -0.897011         0.348196
 H        -2.927586        -0.119049        -0.729378
 H        -2.111078        -1.922075         1.780612
 H        -0.041911        -1.286450         1.152105
 H        -0.344095        -1.872713        -0.405432
 H        -0.576244         0.720318         2.113692
 H        -1.571295         2.111414         1.796997
