19
Iteration:   152
 C        -3.444560         0.180740         2.895252
 C        -2.540651         0.094998         1.641622
 C        -3.162050        -0.421906         0.345295
 C        -2.020416        -1.167528         0.934695
 C        -0.542688        -1.241561         0.304874
 C        -0.176654         0.077965        -0.449819
 O         0.442871         0.035007        -1.479773
 O        -0.623030         1.273018         0.129416
 C        -1.367290         1.202564         1.423716
 H        -3.601233        -1.001283         3.083174
 H        -3.033388         0.613219         3.798433
 H        -4.435825         0.594200         2.625656
 H        -4.091951        -0.936090         0.234613
 H        -2.925082         0.292093        -0.455878
 H        -2.291261        -1.989507         1.508838
 H         0.194424        -1.303069         1.159278
 H        -0.436890        -2.052321        -0.450733
 H        -0.543493         0.942984         2.225207
 H        -1.658402         2.247234         1.611287
