19
Iteration:   696charge 0 multiplicity 1
 C        -2.838672         0.104448         3.061868
 C        -2.508160         0.114538         1.588049
 C        -3.344476        -0.651269         0.418633
 C        -2.055235        -1.230418         0.975400
 C        -0.644916        -1.185910         0.332488
 C        -0.213499         0.090722        -0.405555
 O         0.853359         0.135438        -1.075034
 O        -0.855206         1.258360        -0.144215
 C        -1.872234         1.369674         0.971562
 H        -3.696218         0.703968         3.319564
 H        -2.978882        -0.908583         3.389792
 H        -2.042662         0.354559         3.690472
 H        -4.300279        -1.213338         0.713133
 H        -3.438132        -0.105925        -0.549946
 H        -2.109343        -2.226444         1.604813
 H         0.098719        -1.211220         1.105098
 H        -0.424808        -1.989979        -0.477084
 H        -1.350802         1.996471         1.681894
 H        -2.755226         1.998745         0.606453
