19
Iteration:  1996
 C        -3.194430         0.330311         2.882611
 C        -2.458044        -0.005604         1.600188
 C        -3.073313        -0.802000         0.441730
 C        -1.825878        -1.303703         1.040477
 C        -0.622587        -1.174359         0.274639
 C        -0.287989         0.080161        -0.467859
 O         0.621020         0.222471        -1.232364
 O        -0.963402         1.258016        -0.064143
 C        -1.586436         1.294873         1.228129
 H        -4.094729         0.807304         2.469400
 H        -3.435374        -0.494974         3.571365
 H        -2.682564         1.116300         3.442511
 H        -4.045843        -1.182006         0.785359
 H        -3.014315        -0.195415        -0.466211
 H        -2.027356        -2.056389         1.868564
 H         0.225443        -1.186322         0.875425
 H        -0.601943        -2.035432        -0.343273
 H        -0.790511         1.353798         2.043865
 H        -2.231228         2.184471         1.378710
