19
Iteration:  1599charge 0 multiplicity 1
 C        -3.296311         0.272641         2.802832
 C        -2.379108         0.107318         1.665393
 C        -3.001454        -0.654734         0.478897
 C        -1.848669        -1.234359         1.121524
 C        -0.532945        -1.268290         0.376559
 C        -0.246949         0.055977        -0.457870
 O         0.498448         0.178613        -1.384709
 O        -0.923480         1.196298         0.012254
 C        -1.609949         1.332393         1.164383
 H        -4.231786         0.759618         2.499131
 H        -3.561312        -0.764832         3.105990
 H        -2.851963         0.863865         3.648193
 H        -3.982245        -1.170919         0.611361
 H        -2.830780        -0.080650        -0.402866
 H        -1.945689        -2.180345         1.711018
 H         0.312259        -1.393071         1.247179
 H        -0.356099        -2.105891        -0.385028
 H        -1.069463         1.784963         2.048548
 H        -2.457732         1.995319         0.938852
