19
Iteration:  4731charge 0 multiplicity 1
 C        -3.169893         0.086438         2.829186
 C        -2.462499         0.156239         1.550536
 C        -3.177067        -0.386376         0.322026
 C        -1.987675        -1.201135         1.025586
 C        -0.747308        -1.195036         0.250440
 C        -0.298069         0.047955        -0.450598
 O         0.517539         0.073434        -1.301580
 O        -0.730217         1.284017         0.134039
 C        -1.374758         1.195995         1.338525
 H        -3.929213         0.857551         3.036630
 H        -3.730922        -0.847768         2.977157
 H        -2.511624         0.109718         3.718645
 H        -4.202704        -0.695377         0.382440
 H        -3.032215        -0.010657        -0.686733
 H        -2.322717        -2.138286         1.500841
 H         0.084189        -1.537888         0.916336
 H        -0.840544        -1.992041        -0.493969
 H        -0.568430         0.862340         2.150073
 H        -1.694136         2.267822         1.676458
