19
Iteration:  3693charge 0 multiplicity 1
 C        -3.323172         0.157128         2.816667
 C        -2.406974         0.132612         1.599573
 C        -3.023599        -0.339467         0.261933
 C        -2.092831        -1.158641         1.000348
 C        -0.783576        -1.264374         0.166930
 C        -0.300635        -0.007994        -0.423238
 O         0.336499         0.077900        -1.470186
 O        -0.543282         1.160597         0.273034
 C        -1.276115         1.267106         1.513396
 H        -3.407857        -0.865327         3.301595
 H        -3.053261         0.864504         3.580694
 H        -4.370037         0.444172         2.651983
 H        -4.128793        -0.355398         0.276361
 H        -2.651567         0.109708        -0.629752
 H        -2.309394        -2.138837         1.537266
 H        -0.013562        -1.606196         0.847851
 H        -0.695409        -2.038053        -0.615416
 H        -0.588800         1.139713         2.402289
 H        -1.746750         2.228743         1.462011
