19
Iteration:  3119
 C        -3.141940         0.214149         2.902913
 C        -2.470311         0.001699         1.586217
 C        -3.177420        -0.666731         0.448978
 C        -1.909069        -1.244633         1.066369
 C        -0.623060        -1.159699         0.223624
 C        -0.213920         0.090316        -0.417473
 O         0.671695         0.244936        -1.219468
 O        -0.919403         1.251619        -0.073409
 C        -1.644935         1.251069         1.222841
 H        -3.040235        -0.654693         3.451691
 H        -2.595884         1.024169         3.406712
 H        -4.204257         0.480654         2.803385
 H        -4.079751        -1.031472         0.837661
 H        -3.182089        -0.426801        -0.640535
 H        -1.974216        -2.231236         1.592763
 H         0.322582        -1.277975         0.905855
 H        -0.675296        -2.023590        -0.413251
 H        -0.921674         1.314140         2.063110
 H        -2.277726         2.090773         1.160862
