19
Iteration:  3699charge 0 multiplicity 1
 C        -3.316613         0.121677         2.819884
 C        -2.391365         0.151834         1.529376
 C        -3.057031        -0.362129         0.213460
 C        -2.057826        -1.195749         1.053580
 C        -0.834673        -1.223775         0.222882
 C        -0.273416         0.001105        -0.440419
 O         0.331215         0.089381        -1.458645
 O        -0.552372         1.155011         0.283086
 C        -1.235014         1.255726         1.498506
 H        -3.435329        -0.766275         3.419818
 H        -2.957540         0.839686         3.613452
 H        -4.331212         0.459430         2.531379
 H        -4.118486        -0.318708         0.228117
 H        -2.774274         0.085704        -0.790366
 H        -2.454779        -1.973260         1.659259
 H         0.128740        -1.452621         0.816651
 H        -0.970898        -1.991116        -0.577719
 H        -0.556476         1.007304         2.314840
 H        -1.755132         2.248319         1.713568
