19
Iteration:  3479charge 0 multiplicity 1
 C        -3.234132         0.149731         2.959472
 C        -2.479585         0.101925         1.610177
 C        -3.182676        -0.261702         0.393667
 C        -2.004512        -1.163742         0.885211
 C        -0.653066        -1.277106         0.215223
 C        -0.168359         0.021150        -0.398348
 O         0.537565         0.124338        -1.403893
 O        -0.676442         1.108594         0.147565
 C        -1.518043         1.231769         1.335934
 H        -3.174333         1.149972         3.439647
 H        -4.324273        -0.167747         2.845706
 H        -2.826991        -0.599614         3.699914
 H        -3.995853        -0.947915         0.485999
 H        -3.276946         0.268306        -0.572984
 H        -2.485688        -1.935758         1.449212
 H         0.176949        -1.819827         0.820356
 H        -0.826530        -1.914670        -0.653448
 H        -0.885672         1.390289         2.294269
 H        -2.025127         2.261799         1.162308
