19
Iteration:  2246
 C        -3.171326         0.159502         2.942679
 C        -2.543471         0.055210         1.500507
 C        -3.234189        -0.690792         0.395444
 C        -1.822383        -1.229621         1.010329
 C        -0.440762        -1.139459         0.406347
 C        -0.170572         0.098627        -0.397029
 O         0.496586         0.105759        -1.384924
 O        -0.779340         1.283927         0.000667
 C        -1.748945         1.366799         1.239598
 H        -3.884462         0.984171         2.987757
 H        -3.612139        -0.742103         3.377733
 H        -2.496633         0.478381         3.787724
 H        -4.044996        -1.289565         0.760047
 H        -3.261196        -0.484283        -0.725843
 H        -1.875306        -2.129999         1.666142
 H         0.240258        -1.162549         1.231517
 H        -0.203751        -2.020747        -0.116086
 H        -1.106821         1.626868         2.040839
 H        -2.411165         2.102280         0.841467
