19
Iteration:  1532charge 0 multiplicity 1
 C        -2.952992         0.204301         2.852299
 C        -2.530212         0.054603         1.493509
 C        -3.229768        -0.682477         0.349178
 C        -1.908942        -1.206937         0.992390
 C        -0.488656        -1.182548         0.525916
 C        -0.277745         0.055449        -0.365388
 O         0.569230         0.103758        -1.269949
 O        -0.921172         1.261416        -0.021983
 C        -1.708305         1.350032         1.127296
 H        -3.176560         1.230774         3.204274
 H        -3.777025        -0.378591         3.283403
 H        -2.054436        -0.120625         3.422372
 H        -4.149627        -1.184919         0.421209
 H        -3.154725        -0.174845        -0.606395
 H        -2.184482        -2.025403         1.682022
 H         0.178679        -0.952948         1.511111
 H        -0.134796        -2.209950         0.157831
 H        -1.021883         1.850965         1.909446
 H        -2.500510         2.048869         0.862310
