19
Iteration:  3097
 C        -3.206990         0.139460         2.942575
 C        -2.494542         0.066574         1.590618
 C        -3.325771        -0.727261         0.529197
 C        -1.968039        -1.257911         1.013909
 C        -0.529116        -1.150725         0.344463
 C        -0.145678         0.162544        -0.448522
 O         0.706210         0.251203        -1.284150
 O        -0.954887         1.227262        -0.156019
 C        -1.526175         1.297543         1.190318
 H        -3.627924        -0.818943         2.942667
 H        -2.678764         0.281406         3.899823
 H        -4.017172         0.878635         2.769724
 H        -4.198205        -1.245755         0.877872
 H        -3.428802        -0.216571        -0.431195
 H        -1.918278        -2.055910         1.801579
 H         0.276320        -1.234443         1.207773
 H        -0.273721        -1.974657        -0.319654
 H        -0.652101         1.142862         1.919787
 H        -1.907969         2.269555         1.299660
