19
Iteration:   880
 C        -2.121950         0.095866         2.905476
 C        -2.516813         0.115900         1.427769
 C        -3.542692        -0.831076         0.888153
 C        -2.091517        -1.260386         0.858118
 C        -1.041648        -1.110404        -0.259599
 C        -0.194846         0.165445        -0.186900
 O         1.031880         0.196344        -0.238742
 O        -0.851418         1.420097        -0.093282
 C        -2.207385         1.224059         0.423848
 H        -2.878388         0.445318         3.634376
 H        -1.494582        -0.789493         3.166228
 H        -1.282560         0.893581         2.988336
 H        -4.199110        -1.403791         1.539202
 H        -4.114011        -0.605621        -0.099571
 H        -1.827275        -2.126337         1.575174
 H        -0.332458        -1.902744        -0.261088
 H        -1.547765        -1.110333        -1.202379
 H        -2.645151         2.128630         0.671093
 H        -2.714396         0.865715        -0.457779
