19
Iteration:  3857charge 0 multiplicity 1
 C        -3.123356         0.340022         2.973121
 C        -2.516890         0.019099         1.540712
 C        -3.246765        -0.253765         0.323146
 C        -2.055725        -1.220576         0.807865
 C        -0.601595        -1.325641         0.196859
 C        -0.196678         0.000862        -0.367945
 O         0.507339         0.139811        -1.381822
 O        -0.711821         1.126206         0.222148
 C        -1.489838         1.120838         1.394779
 H        -4.130067        -0.105776         3.016123
 H        -2.465892        -0.235100         3.611860
 H        -3.140171         1.433061         3.218218
 H        -4.264291        -0.436901         0.543791
 H        -3.094828         0.503384        -0.495867
 H        -2.427644        -2.122828         1.224635
 H         0.018754        -1.712779         1.092927
 H        -0.439297        -2.076223        -0.590282
 H        -0.767398         1.338666         2.203379
 H        -2.005774         2.018194         1.194430
