19
Iteration:   123
 C        -3.319966         0.274050         2.639547
 C        -2.323831         0.079928         1.594193
 C        -2.919500        -0.393023         0.204906
 C        -1.955188        -1.233345         0.999126
 C        -0.558912        -1.280655         0.358494
 C        -0.290565         0.029379        -0.350918
 O         0.162575         0.175060        -1.472776
 O        -0.732774         1.103108         0.293194
 C        -1.392648         1.206399         1.518572
 H        -3.783764        -0.611341         2.745895
 H        -2.890598         0.606450         3.607657
 H        -4.055835         1.031821         2.326377
 H        -3.991354        -0.622456         0.041989
 H        -2.530537         0.027811        -0.691423
 H        -2.362053        -2.181227         1.611865
 H         0.217799        -1.353316         1.141307
 H        -0.540319        -2.051394        -0.378240
 H        -0.698659         1.357418         2.294684
 H        -1.879501         2.184495         1.498533
