19
Iteration:  1472charge 0 multiplicity 1
 C        -3.282537         0.172916         2.841294
 C        -2.470238         0.196561         1.527123
 C        -3.109977        -0.617210         0.509493
 C        -1.851448        -1.105567         1.171983
 C        -0.583927        -1.207266         0.352564
 C        -0.321339         0.079074        -0.480865
 O         0.637911         0.185577        -1.249902
 O        -0.977592         1.150997        -0.140380
 C        -1.490954         1.212019         1.209808
 H        -3.968494         1.002215         2.847744
 H        -3.772726        -0.809468         2.943303
 H        -2.538480         0.171670         3.645589
 H        -4.088775        -1.115284         0.842284
 H        -2.899275        -0.685055        -0.562626
 H        -1.786418        -1.822337         1.991567
 H         0.345672        -1.168114         0.985253
 H        -0.626659        -2.096016        -0.243724
 H        -0.700877         1.186249         1.864744
 H        -1.969535         2.227780         1.233311
