19
Iteration:   521charge 0 multiplicity 1
 C        -3.351904         0.223655         2.728483
 C        -2.446145         0.003773         1.537437
 C        -2.994577        -0.539820         0.205470
 C        -1.775985        -1.140981         0.954908
 C        -0.170163        -1.143620         0.609425
 C        -0.186287         0.066231        -0.321843
 O        -0.103487        -0.089636        -1.555583
 O        -0.608607         1.278509         0.266480
 C        -1.632931         1.340457         1.382315
 H        -4.380510         0.660618         2.419338
 H        -3.597611        -0.780058         2.996336
 H        -2.917379         0.871054         3.413888
 H        -3.847144        -1.231552         0.050323
 H        -2.909793         0.250140        -0.657675
 H        -2.129730        -2.127454         1.348258
 H         0.382263        -1.063202         1.459760
 H         0.015234        -2.079723         0.019827
 H        -1.053086         1.546972         2.258817
 H        -2.239171         2.245971         1.052024
