19
Iteration:  1633charge 0 multiplicity 1
 C        -3.312317         0.447607         2.761604
 C        -2.528252         0.093693         1.520107
 C        -2.986778        -0.810233         0.427028
 C        -1.803930        -1.268496         1.115942
 C        -0.469053        -1.175191         0.383026
 C        -0.232937         0.129604        -0.411345
 O         0.437945         0.146398        -1.428256
 O        -1.024581         1.246184         0.040684
 C        -1.469714         1.155044         1.353243
 H        -4.166790         1.093089         2.582920
 H        -3.686693        -0.442936         3.304888
 H        -2.693884         0.956824         3.551925
 H        -3.936396        -1.334476         0.323956
 H        -2.758934        -0.388667        -0.579163
 H        -1.962757        -2.045435         1.837481
 H         0.494055        -1.287211         1.080609
 H        -0.355046        -1.963737        -0.406631
 H        -0.727186         1.160058         2.172936
 H        -1.955377         2.143782         1.418573
