19
Iteration:  4726
 C        -3.135170         0.112767         2.820636
 C        -2.422282         0.144424         1.513632
 C        -3.211518        -0.403602         0.310455
 C        -2.040386        -1.170502         1.025182
 C        -0.717564        -1.188996         0.263313
 C        -0.328413         0.058294        -0.413699
 O         0.553591         0.059715        -1.317299
 O        -0.747254         1.302685         0.138644
 C        -1.392150         1.159757         1.383123
 H        -3.896006         0.856008         3.110597
 H        -3.704512        -0.823638         2.866491
 H        -2.421510         0.119806         3.651390
 H        -4.255597        -0.782311         0.510797
 H        -3.110615         0.035496        -0.698754
 H        -2.266084        -2.213160         1.340908
 H         0.087667        -1.500167         0.948397
 H        -0.862343        -2.023416        -0.443560
 H        -0.559437         0.902278         2.010060
 H        -1.701656         2.129864         1.617764
