19
Iteration:  4351
 C        -3.100036         0.196852         2.936017
 C        -2.537423         0.086000         1.483815
 C        -3.217221        -0.450413         0.221550
 C        -2.050375        -1.211851         0.852470
 C        -0.736722        -1.243303         0.272879
 C        -0.274743         0.061383        -0.359097
 O         0.504338         0.191934        -1.285240
 O        -0.708975         1.223452         0.145630
 C        -1.382617         1.112716         1.416726
 H        -4.215827         0.352015         2.899369
 H        -2.842514        -0.763462         3.536737
 H        -2.585167         1.025912         3.482072
 H        -4.212518        -0.768006         0.297142
 H        -2.985634         0.141619        -0.629123
 H        -2.354578        -2.052023         1.468233
 H         0.024987        -1.291502         1.159262
 H        -0.503762        -2.075294        -0.383621
 H        -0.495612         1.048235         2.030521
 H        -1.729805         2.157821         1.366545
