19
Iteration:  1337charge 0 multiplicity 1
 C        -3.250615         0.232580         2.764693
 C        -2.499957         0.149790         1.484822
 C        -3.054528        -0.773612         0.445736
 C        -1.811690        -1.260861         1.208897
 C        -0.565937        -1.225384         0.391044
 C        -0.310019         0.085845        -0.416546
 O         0.297553         0.127657        -1.462543
 O        -0.546052         1.262642         0.260655
 C        -1.681344         1.404632         1.069238
 H        -3.475486         1.297707         2.991920
 H        -4.194889        -0.346874         2.792212
 H        -2.603629        -0.155422         3.604755
 H        -3.916142        -1.424506         0.671125
 H        -2.905005        -0.680666        -0.596604
 H        -1.800986        -1.929801         2.077996
 H         0.350430        -1.303328         1.038634
 H        -0.536095        -2.112244        -0.329973
 H        -1.255768         1.942436         1.921083
 H        -2.356693         2.152114         0.572625
