19
Iteration:   560
 C        -3.292555         0.115476         2.668436
 C        -2.399829         0.166639         1.469566
 C        -2.857635        -0.727306         0.154082
 C        -1.836879        -1.250918         1.217636
 C        -0.471577        -1.110824         0.612265
 C        -0.356902         0.054135        -0.346699
 O        -0.085568         0.039361        -1.563343
 O        -0.506174         1.317455         0.258420
 C        -1.542144         1.413775         1.281018
 H        -3.758406         1.043478         2.847830
 H        -4.182278        -0.594070         2.470250
 H        -2.862180        -0.461229         3.582710
 H        -3.821474        -1.160749         0.103809
 H        -2.372522        -0.358286        -0.728146
 H        -1.991666        -2.085279         1.840766
 H         0.252652        -1.015808         1.549282
 H        -0.111640        -2.043058         0.162686
 H        -1.135902         1.856470         2.245150
 H        -2.226273         2.217621         1.013010
