19
Iteration:  3540
 C        -3.062024         0.197360         2.966515
 C        -2.499166         0.083142         1.530136
 C        -3.289159        -0.331785         0.302234
 C        -2.104854        -1.197362         0.842033
 C        -0.706013        -1.328740         0.173924
 C        -0.195155         0.049429        -0.312530
 O         0.551844         0.100558        -1.298037
 O        -0.720893         1.214341         0.146033
 C        -1.442343         1.210119         1.368532
 H        -4.044516         0.712350         2.768129
 H        -3.265815        -0.692389         3.533586
 H        -2.495657         0.954645         3.505290
 H        -4.212010        -0.804449         0.502850
 H        -3.095803         0.237362        -0.644160
 H        -2.312527        -2.103954         1.490160
 H         0.032792        -1.665470         0.827547
 H        -0.719837        -1.985396        -0.716085
 H        -0.638263         0.939717         2.051010
 H        -1.718680         2.219608         1.551648
