19
Iteration:  3547charge 0 multiplicity 1
 C        -3.113753         0.247024         2.975903
 C        -2.504714         0.090908         1.575055
 C        -3.254628        -0.288768         0.302479
 C        -2.128718        -1.228090         0.835459
 C        -0.708051        -1.314318         0.202039
 C        -0.169055         0.010570        -0.404293
 O         0.586979         0.152483        -1.320116
 O        -0.734936         1.157779         0.114311
 C        -1.436810         1.168343         1.428832
 H        -4.130403         0.669849         2.941411
 H        -3.112324        -0.718050         3.568004
 H        -2.532829         0.983528         3.640058
 H        -4.263333        -0.870856         0.386484
 H        -3.110993         0.226798        -0.643266
 H        -2.260157        -2.176371         1.367009
 H         0.082648        -1.754806         0.906500
 H        -0.747720        -1.965601        -0.704122
 H        -0.631210         1.254675         2.281185
 H        -1.896062         2.194672         1.448906
