19
Iteration:  1289
 C        -3.299688         0.364981         2.837827
 C        -2.422163         0.068084         1.629668
 C        -2.997642        -0.675806         0.370674
 C        -1.832562        -1.288527         1.110605
 C        -0.508324        -1.153568         0.405271
 C        -0.331094         0.038391        -0.466769
 O         0.498284         0.117402        -1.354218
 O        -0.949114         1.250425        -0.071688
 C        -1.554611         1.209818         1.296720
 H        -3.892186         1.333274         2.700944
 H        -3.982991        -0.490315         3.049532
 H        -2.706248         0.445494         3.775321
 H        -3.990561        -0.939194         0.657064
 H        -2.893651        -0.179630        -0.641767
 H        -2.058468        -2.262493         1.536531
 H         0.177031        -0.960379         1.181258
 H        -0.122200        -1.983804        -0.134460
 H        -0.581190         1.326395         1.929979
 H        -2.149028         2.098039         1.431773
