19
Iteration:   582charge 0 multiplicity 1
 C        -3.351290         0.187373         2.630345
 C        -2.471118         0.158240         1.409173
 C        -2.963429        -0.818338         0.314884
 C        -1.804639        -1.213231         1.213159
 C        -0.410153        -1.132459         0.482514
 C        -0.343218         0.164156        -0.345675
 O         0.075685         0.035925        -1.507131
 O        -0.580172         1.356208         0.195732
 C        -1.522212         1.318884         1.304530
 H        -3.456673         1.173657         2.975214
 H        -4.388254        -0.272761         2.640297
 H        -2.973134        -0.520247         3.444894
 H        -3.922113        -1.172886         0.565047
 H        -2.695858        -0.716031        -0.735108
 H        -1.951832        -1.845563         2.026321
 H         0.416411        -1.313401         1.277548
 H        -0.350063        -2.015226        -0.156218
 H        -0.938568         1.229321         2.275180
 H        -2.041286         2.248174         1.441500
