19
Iteration:   197charge 0 multiplicity 1
 C        -2.928342         0.125452         2.908817
 C        -2.454447         0.161436         1.456120
 C        -3.341824        -0.388601         0.318196
 C        -2.084479        -1.224378         0.837539
 C        -0.709685        -1.300555         0.212166
 C        -0.245109         0.003009        -0.324151
 O         0.648726         0.089062        -1.114549
 O        -0.822693         1.222990         0.079917
 C        -1.533947         1.319359         1.299066
 H        -3.469426        -0.874049         3.075312
 H        -2.167513         0.333272         3.690895
 H        -3.734198         0.914027         2.953989
 H        -4.390433        -0.730366         0.290147
 H        -3.103725         0.163744        -0.534374
 H        -2.315088        -2.176710         1.358544
 H        -0.008117        -1.450756         1.096673
 H        -0.562411        -2.072512        -0.531557
 H        -0.750718         1.235517         2.140812
 H        -1.901130         2.353457         1.409874
