19
Iteration:  1486charge 0 multiplicity 1
 C        -3.204182         0.243977         2.929768
 C        -2.470128         0.106422         1.617507
 C        -3.090490        -0.617361         0.407684
 C        -1.883377        -1.228212         1.170409
 C        -0.550221        -1.203182         0.387345
 C        -0.212870         0.009805        -0.519517
 O         0.676787         0.202201        -1.287959
 O        -1.045480         1.175454        -0.164736
 C        -1.611670         1.296028         1.219620
 H        -3.738264         1.215719         2.994320
 H        -4.031253        -0.475049         2.954901
 H        -2.680579         0.168776         3.864507
 H        -4.045912        -1.142376         0.540698
 H        -3.042767        -0.082173        -0.564448
 H        -2.175176        -2.112024         1.718792
 H         0.314935        -1.340869         1.188617
 H        -0.406908        -2.102162        -0.247997
 H        -0.730369         1.283615         1.881073
 H        -2.051183         2.292364         1.237532
