19
Iteration:  1494
 C        -3.227048         0.291375         2.972204
 C        -2.443510         0.060633         1.615513
 C        -3.104987        -0.645613         0.390722
 C        -1.925914        -1.245227         1.086825
 C        -0.510700        -1.217763         0.402656
 C        -0.180679         0.054277        -0.389631
 O         0.662578         0.171524        -1.314782
 O        -1.073967         1.176465        -0.164018
 C        -1.583530         1.304612         1.197741
 H        -3.522308         1.333923         3.003594
 H        -4.045053        -0.418072         3.157738
 H        -2.497304         0.059099         3.767043
 H        -4.154370        -1.131082         0.409921
 H        -2.971965         0.120281        -0.395577
 H        -2.105677        -2.235579         1.508619
 H         0.364270        -1.168841         1.086426
 H        -0.454274        -2.044508        -0.265644
 H        -0.819415         1.522324         1.876649
 H        -2.258589         2.200946         1.080315
