19
Iteration:  1875
 C        -2.946720         0.081352         2.942778
 C        -2.617313         0.175028         1.490505
 C        -3.309758        -0.745117         0.372471
 C        -1.990124        -1.203410         1.034294
 C        -0.542622        -1.039738         0.489556
 C        -0.169741         0.063381        -0.418856
 O         0.641991         0.147305        -1.358212
 O        -0.829425         1.168998         0.016145
 C        -1.724811         1.374961         1.121917
 H        -3.457063         1.011789         3.274249
 H        -3.637797        -0.779129         3.120446
 H        -2.033514         0.036653         3.605417
 H        -3.997379        -1.564263         0.635647
 H        -3.318564        -0.449603        -0.699266
 H        -2.058060        -2.004124         1.814439
 H         0.010515        -0.738571         1.372898
 H        -0.070260        -1.902495         0.111192
 H        -1.254576         1.718010         2.088066
 H        -2.333493         2.171956         0.635554
