19
Iteration:   280charge 0 multiplicity 1
 C        -2.929610         0.177744         2.871027
 C        -2.513298         0.137066         1.427756
 C        -3.461464        -0.707789         0.629642
 C        -2.068515        -1.233577         0.978200
 C        -0.939561        -1.179653        -0.089171
 C        -0.185921         0.134741        -0.295593
 O         0.927169         0.090123        -0.822810
 O        -0.818149         1.288366        -0.145216
 C        -1.517507         1.284134         1.147078
 H        -3.772924         0.905776         3.165372
 H        -3.193534        -0.784171         3.221421
 H        -2.045025         0.443185         3.413753
 H        -4.404889        -0.989675         1.197361
 H        -3.484580        -0.397148        -0.426140
 H        -1.859505        -1.930922         1.786361
 H        -0.161942        -1.873406         0.014194
 H        -1.242302        -1.362174        -1.177428
 H        -0.837997         1.396325         1.998750
 H        -2.102194         2.222955         1.161886
