19
Iteration:  2987charge 0 multiplicity 1
 C        -3.394275         0.127602         2.764397
 C        -2.564503         0.019225         1.566877
 C        -3.056308        -0.757968         0.417528
 C        -1.794178        -1.207245         1.246539
 C        -0.373986        -1.096382         0.524208
 C        -0.268477         0.108659        -0.506731
 O         0.339205         0.154717        -1.573699
 O        -0.660624         1.360976         0.048036
 C        -1.631944         1.315879         1.267303
 H        -4.177779         0.851139         2.877659
 H        -4.029274        -0.803616         2.720565
 H        -2.792476         0.106906         3.707940
 H        -3.953885        -1.321990         0.757414
 H        -2.930507        -0.492729        -0.623346
 H        -1.896770        -2.190793         1.746315
 H         0.451652        -0.954416         1.279281
 H        -0.316291        -2.092536         0.022878
 H        -0.948031         1.313190         2.141209
 H        -2.020836         2.263837         1.294293
