19
Iteration:  3081
 C        -3.228775         0.093003         2.898764
 C        -2.526453         0.109659         1.528106
 C        -3.219199        -0.601118         0.490918
 C        -1.852182        -1.198253         1.083164
 C        -0.431061        -1.174256         0.358658
 C        -0.192687         0.098005        -0.439206
 O         0.667867         0.183293        -1.284470
 O        -1.033130         1.277781        -0.154691
 C        -1.608786         1.222531         1.237721
 H        -4.105495        -0.582151         3.188869
 H        -2.423536        -0.193875         3.594806
 H        -3.501805         1.086078         3.240481
 H        -4.190806        -1.067630         0.777977
 H        -3.135505        -0.333697        -0.570604
 H        -2.072845        -2.118077         1.564263
 H         0.277005        -1.208830         1.136932
 H        -0.196993        -2.061057        -0.285919
 H        -0.773845         1.281686         1.909272
 H        -2.086685         2.269243         1.448785
