19
Iteration:  2634
 C        -3.413857         0.376171         2.849847
 C        -2.287660        -0.029898         1.718219
 C        -3.037528        -0.617475         0.415165
 C        -1.798564        -1.321233         1.100311
 C        -0.444377        -1.206568         0.345460
 C        -0.143236         0.139264        -0.364181
 O         0.432173         0.212220        -1.463615
 O        -0.938495         1.164034         0.017225
 C        -1.628864         1.216337         1.254650
 H        -3.907510         1.367462         2.657832
 H        -4.341974        -0.196309         2.950652
 H        -2.985929         0.314927         3.844369
 H        -4.030818        -0.917556         0.355140
 H        -2.833733        -0.195997        -0.536227
 H        -1.890931        -2.298196         1.650458
 H         0.384397        -1.453210         0.922616
 H        -0.430815        -1.864377        -0.549258
 H        -1.051941         1.771383         2.025201
 H        -2.517283         1.806238         0.876227
