19
Iteration:  1973charge 0 multiplicity 1
 C        -3.285874         0.246799         2.860902
 C        -2.497709         0.128313         1.581508
 C        -3.223198        -0.721639         0.621028
 C        -1.850980        -1.311429         1.107387
 C        -0.559739        -1.163127         0.241811
 C        -0.139072         0.203779        -0.356749
 O         0.666892         0.210023        -1.275794
 O        -1.019507         1.246103        -0.182385
 C        -1.458850         1.165327         1.205316
 H        -4.124212         0.781239         2.455693
 H        -3.624962        -0.703001         3.289816
 H        -2.862767         0.878848         3.640387
 H        -4.054833        -1.242698         1.030603
 H        -3.130487        -0.679942        -0.497252
 H        -2.015951        -2.039146         1.967444
 H         0.312477        -1.530320         0.600160
 H        -0.696493        -1.689162        -0.666419
 H        -0.620227         1.327898         1.913074
 H        -2.114809         2.064966         1.344969
