19
Iteration:  2197
 C        -3.238946         0.147020         2.832603
 C        -2.435443         0.121267         1.506022
 C        -2.964417        -0.762801         0.282716
 C        -1.878486        -1.223816         1.124787
 C        -0.427765        -1.221857         0.476719
 C        -0.295927         0.111117        -0.378948
 O         0.244829         0.103291        -1.490320
 O        -0.696430         1.315791         0.184803
 C        -1.677417         1.411018         1.215336
 H        -4.347047         0.342466         2.739393
 H        -3.065289        -0.752941         3.439461
 H        -2.982599         0.910710         3.569062
 H        -4.011328        -1.148785         0.120580
 H        -2.688947        -0.315413        -0.662190
 H        -2.150469        -1.908358         1.927778
 H         0.395699        -1.346708         1.211834
 H        -0.296701        -2.132672        -0.207764
 H        -1.113801         1.489050         2.168316
 H        -2.256665         2.215089         0.755391
