19
Iteration:  3726charge 0 multiplicity 1
 C        -3.273673         0.285120         2.765763
 C        -2.494257         0.210687         1.479061
 C        -3.159033        -0.450471         0.306310
 C        -2.071912        -1.215278         0.865979
 C        -0.696306        -1.269773         0.243551
 C        -0.239938         0.023324        -0.331648
 O         0.297579         0.084244        -1.441109
 O        -0.566049         1.268164         0.265070
 C        -1.208561         1.094521         1.501218
 H        -3.371636        -0.728539         3.255260
 H        -2.680657         0.760871         3.543422
 H        -4.307375         0.651467         2.696431
 H        -4.271188        -0.598287         0.463774
 H        -3.044895         0.123896        -0.572354
 H        -2.466718        -1.988336         1.567397
 H        -0.006051        -1.411892         1.085079
 H        -0.576225        -2.012863        -0.572210
 H        -0.521273         0.527653         2.210183
 H        -1.493565         1.940713         2.058436
