19
Iteration:    96charge 0 multiplicity 1
 C        -3.368635         0.283829         2.646973
 C        -2.458790         0.088638         1.443091
 C        -2.921357        -0.510891         0.117067
 C        -1.928952        -1.323298         1.025323
 C        -0.511583        -1.239633         0.490296
 C        -0.303336         0.106939        -0.308221
 O        -0.047585         0.092553        -1.482028
 O        -0.477567         1.346362         0.320601
 C        -1.351131         1.159835         1.503343
 H        -4.377044        -0.385005         2.623281
 H        -2.833020        -0.013117         3.538944
 H        -3.623007         1.335904         2.750604
 H        -3.962623        -0.798008         0.349804
 H        -2.760297        -0.350026        -0.986354
 H        -2.301029        -2.225172         1.261228
 H         0.339536        -1.384959         1.207682
 H        -0.490759        -2.041546        -0.326089
 H        -0.568207         0.900772         2.315027
 H        -1.662305         2.195759         1.725044
