19
Iteration:  3079
 C        -3.226373         0.090021         2.904538
 C        -2.527992         0.112678         1.528961
 C        -3.201455        -0.595869         0.472381
 C        -1.846041        -1.191439         1.083291
 C        -0.446324        -1.171582         0.370738
 C        -0.198460         0.106309        -0.449844
 O         0.657877         0.176851        -1.279127
 O        -1.037055         1.266945        -0.143976
 C        -1.610442         1.223534         1.237089
 H        -4.097918        -0.564970         3.165046
 H        -2.417370        -0.239773         3.564049
 H        -3.424942         1.131096         3.246005
 H        -4.102241        -1.066474         0.762222
 H        -3.114066        -0.313626        -0.620147
 H        -2.056838        -2.136921         1.576318
 H         0.293771        -1.229047         1.140267
 H        -0.207682        -2.007742        -0.273103
 H        -0.762778         1.305133         1.920676
 H        -2.124056         2.181316         1.399342
