19
Iteration:   999charge 0 multiplicity 1
 C        -2.510829         0.479850         2.964693
 C        -2.542923         0.046687         1.467007
 C        -3.391014        -1.059805         0.937149
 C        -1.873659        -1.173150         0.809384
 C        -1.117542        -1.059820        -0.445585
 C        -0.173643         0.067922        -0.265026
 O         1.045352         0.198183        -0.494240
 O        -0.749797         1.219964         0.160525
 C        -2.157904         1.227865         0.524306
 H        -2.830402         1.540011         3.154529
 H        -3.230617        -0.129053         3.598693
 H        -1.510834         0.194510         3.466676
 H        -3.857872        -1.736894         1.745937
 H        -4.087596        -0.886272         0.095321
 H        -1.366504        -1.827429         1.618687
 H        -0.506541        -1.880171        -0.740084
 H        -1.740635        -0.798388        -1.278448
 H        -2.304326         2.122028         1.069347
 H        -2.823588         1.393342        -0.376436
