19
Iteration:  4392
 C        -3.385435         0.075281         2.927430
 C        -2.376045         0.080226         1.658707
 C        -3.055396        -0.326091         0.286008
 C        -1.955928        -1.199837         0.938131
 C        -0.665371        -1.224803         0.209109
 C        -0.196775         0.038683        -0.372342
 O         0.379999         0.069283        -1.406394
 O        -0.716147         1.213462         0.121800
 C        -1.388431         1.313169         1.421316
 H        -4.163161         0.646305         2.480165
 H        -3.608502        -0.954366         3.093955
 H        -2.935591         0.688025         3.692859
 H        -4.044211        -0.698196         0.453290
 H        -2.846669         0.275758        -0.555599
 H        -2.225683        -2.225601         1.336362
 H         0.082887        -1.637175         0.926307
 H        -0.624523        -1.978634        -0.572538
 H        -0.740899         1.124436         2.287024
 H        -1.992443         2.194495         1.479185
