19
Iteration:  4517charge 0 multiplicity 1
 C        -3.376394        -0.007215         2.849745
 C        -2.421410         0.213891         1.562364
 C        -3.115466        -0.363951         0.285552
 C        -2.019138        -1.118790         1.034615
 C        -0.554122        -1.175555         0.372191
 C        -0.180206         0.062718        -0.369315
 O         0.308980         0.035272        -1.525742
 O        -0.689643         1.205182         0.096227
 C        -1.321419         1.247342         1.474681
 H        -3.981949         0.824773         3.163339
 H        -3.978528        -0.816711         2.470755
 H        -2.714230        -0.442347         3.549013
 H        -4.193064        -0.688739         0.391861
 H        -3.108422         0.165559        -0.659035
 H        -2.130550        -1.998533         1.641423
 H         0.286491        -1.340064         1.135411
 H        -0.602098        -2.056766        -0.291431
 H        -0.631516         0.980996         2.310227
 H        -1.758078         2.264994         1.524040
