19
Iteration:  3674charge 0 multiplicity 1
 C        -3.318115         0.201802         2.878000
 C        -2.413866         0.100229         1.602281
 C        -3.092172        -0.142435         0.390154
 C        -1.990832        -1.238425         0.803646
 C        -0.635540        -1.390878         0.214378
 C        -0.228730        -0.015201        -0.383132
 O         0.317301         0.057978        -1.483954
 O        -0.522056         1.166922         0.278407
 C        -1.428806         1.254599         1.449606
 H        -3.527039        -0.741259         3.404208
 H        -2.991961         0.885939         3.719215
 H        -4.302902         0.588417         2.550639
 H        -4.140077        -0.656421         0.431559
 H        -3.161477         0.523505        -0.449629
 H        -2.613203        -2.038315         1.173510
 H         0.221213        -1.735837         0.783123
 H        -0.734331        -2.049060        -0.621969
 H        -0.791681         1.256931         2.326640
 H        -2.133933         2.163694         1.400570
