19
Iteration:  1070charge 0 multiplicity 1
 C        -2.645727         0.243920         2.880478
 C        -2.623943         0.207447         1.347202
 C        -3.391507        -0.889886         0.713269
 C        -1.933057        -1.145888         1.019597
 C        -0.812081        -1.246687         0.081248
 C        -0.144499         0.123233        -0.373256
 O         0.867916         0.210930        -1.080985
 O        -0.636682         1.182195         0.436762
 C        -2.168373         1.362619         0.625028
 H        -3.618749         0.606739         3.314129
 H        -2.409138        -0.677897         3.432589
 H        -1.872631         0.925902         3.241940
 H        -3.937122        -1.608181         1.268383
 H        -3.875590        -0.723600        -0.240176
 H        -2.070247        -1.805579         1.828041
 H         0.017748        -1.907528         0.534801
 H        -1.188390        -1.829843        -0.778280
 H        -2.230501         2.263749         1.345243
 H        -2.629163         1.653094        -0.257986
