19
Iteration:  2179
 C        -3.343851         0.094208         2.700319
 C        -2.535165         0.117716         1.444987
 C        -2.989389        -0.709676         0.359301
 C        -1.731423        -1.116315         1.162035
 C        -0.478137        -1.059739         0.433134
 C        -0.266998         0.044401        -0.361305
 O         0.205237         0.046777        -1.491451
 O        -0.675963         1.305074         0.134979
 C        -1.585767         1.329472         1.357428
 H        -4.367247         0.344884         2.549920
 H        -3.100582        -0.832426         3.289300
 H        -3.003653         0.919016         3.398652
 H        -3.787143        -1.355987         0.774505
 H        -2.818824        -0.649638        -0.707522
 H        -1.826140        -1.978965         1.897319
 H         0.363213        -1.193633         1.132967
 H        -0.473147        -1.885500        -0.265502
 H        -0.948003         1.353610         2.244100
 H        -2.105102         2.290777         1.120055
