19
Iteration:  2786charge 0 multiplicity 1
 C        -3.178072         0.144154         2.799070
 C        -2.465401         0.053223         1.518709
 C        -3.276996        -0.870680         0.601297
 C        -1.806603        -1.236922         1.160396
 C        -0.685431        -1.100422         0.195508
 C        -0.323271         0.157192        -0.496677
 O         0.755727         0.195485        -1.076436
 O        -0.915462         1.354964        -0.194579
 C        -1.588690         1.289964         1.184365
 H        -3.606036         1.231535         2.847795
 H        -3.911221        -0.658196         3.023555
 H        -2.597096         0.182012         3.731262
 H        -4.026111        -1.213293         1.225386
 H        -3.499347        -0.806795        -0.470825
 H        -1.561729        -1.997940         1.930038
 H         0.369858        -1.279469         0.674009
 H        -0.709104        -1.942917        -0.557553
 H        -0.744753         1.151740         1.838087
 H        -2.025801         2.333602         1.423166
