19
Iteration:  2069
 C        -3.193434        -0.069830         2.815178
 C        -2.516143         0.094746         1.530048
 C        -3.027456        -0.588331         0.400475
 C        -1.848818        -1.209824         1.130772
 C        -0.459859        -0.994648         0.619646
 C        -0.334738         0.103441        -0.487537
 O         0.407608        -0.027256        -1.458616
 O        -0.763899         1.320008        -0.029146
 C        -1.669934         1.373132         1.196366
 H        -3.479119         0.938536         3.137374
 H        -4.109937        -0.744559         2.835224
 H        -2.426702        -0.451681         3.534517
 H        -4.014864        -1.073082         0.563287
 H        -2.882581        -0.170800        -0.621059
 H        -2.151488        -1.974488         1.841508
 H         0.013819        -0.722093         1.667691
 H         0.098385        -1.906571         0.208073
 H        -1.173693         1.723255         2.106497
 H        -2.331166         2.228955         0.945270
