19
Iteration:  3734charge 0 multiplicity 1
 C        -3.290779         0.300794         2.854301
 C        -2.443177         0.171440         1.485754
 C        -3.217338        -0.392432         0.267512
 C        -2.079981        -1.271760         0.807450
 C        -0.669482        -1.237913         0.260202
 C        -0.202665         0.053395        -0.366881
 O         0.295495         0.072974        -1.440670
 O        -0.588699         1.232284         0.276414
 C        -1.261478         1.084537         1.533083
 H        -3.558654        -0.699595         3.252322
 H        -2.707907         0.943157         3.483590
 H        -4.156508         0.934448         2.607139
 H        -4.172219        -0.750953         0.577054
 H        -3.081875         0.192407        -0.648246
 H        -2.276853        -2.239072         1.401474
 H         0.072403        -1.428713         1.139497
 H        -0.438140        -2.113923        -0.446772
 H        -0.453302         0.683477         2.188282
 H        -1.321071         2.135183         1.860719
