19
Iteration:  4485charge 0 multiplicity 1
 C        -3.221687         0.182781         2.863758
 C        -2.419042         0.066516         1.543030
 C        -3.035042        -0.326035         0.159304
 C        -1.975065        -1.266870         0.908730
 C        -0.551051        -1.191383         0.428852
 C        -0.277116         0.023941        -0.385417
 O         0.239379         0.099924        -1.474676
 O        -0.661153         1.179898         0.197450
 C        -1.466903         1.204622         1.444751
 H        -3.373866         1.056816         3.478541
 H        -4.223085        -0.204960         2.809450
 H        -2.857678        -0.412353         3.673235
 H        -4.116439        -0.641756         0.267511
 H        -2.736568         0.379885        -0.621933
 H        -2.412348        -2.149918         1.361058
 H         0.228442        -1.091260         1.268892
 H        -0.198108        -2.071362        -0.165874
 H        -0.799209         1.343391         2.280160
 H        -2.173977         2.024357         1.408397
