19
Iteration:  2533
 C        -3.325383         0.123986         2.790887
 C        -2.445078        -0.005877         1.620931
 C        -2.941663        -0.392624         0.304742
 C        -1.775156        -1.213138         0.940040
 C        -0.315069        -1.078161         0.657985
 C        -0.158679         0.050529        -0.401694
 O         0.135084        -0.043559        -1.587492
 O        -0.814545         1.206179         0.104024
 C        -1.645389         1.327390         1.327866
 H        -4.155264         0.952795         2.651241
 H        -3.788606        -0.827560         3.112821
 H        -2.615264         0.352898         3.587105
 H        -3.839576        -0.976693         0.327006
 H        -2.733488         0.219232        -0.562514
 H        -2.136167        -2.126332         1.396993
 H         0.169785        -0.858452         1.580922
 H         0.101678        -1.981756         0.331010
 H        -1.120997         1.881687         2.157442
 H        -2.499945         2.044971         1.141496
