19
Iteration:  1178
 C        -2.993704         0.300983         2.799636
 C        -2.542349         0.156003         1.354231
 C        -3.223151        -0.858606         0.527008
 C        -1.870947        -1.203480         1.148023
 C        -0.674316        -1.181365         0.247595
 C        -0.218881         0.105544        -0.354855
 O         0.523663         0.121287        -1.299489
 O        -0.579775         1.220839         0.274848
 C        -1.852541         1.350498         1.005311
 H        -3.462602         1.330253         3.026047
 H        -3.819939        -0.453054         2.994432
 H        -2.095604         0.173842         3.478247
 H        -4.115671        -1.302087         1.009775
 H        -3.231463        -0.805160        -0.523627
 H        -1.831756        -1.943714         1.989126
 H         0.147952        -1.626010         0.761173
 H        -0.857211        -1.729554        -0.637413
 H        -1.524130         1.855033         1.977012
 H        -2.552974         2.030242         0.488186
