19
Iteration:  2543charge 0 multiplicity 1
 C        -3.215916         0.094144         2.786567
 C        -2.390410         0.060577         1.544963
 C        -2.975645        -0.476269         0.272609
 C        -1.844323        -1.163282         0.936897
 C        -0.332817        -1.020490         0.608596
 C        -0.227391         0.099300        -0.340141
 O         0.115595        -0.111485        -1.495906
 O        -0.773763         1.256568         0.097436
 C        -1.665416         1.276492         1.348900
 H        -4.135345         0.755373         2.674842
 H        -3.706620        -0.864067         3.022760
 H        -2.773621         0.462766         3.704050
 H        -3.932889        -0.958016         0.181292
 H        -2.729523         0.031683        -0.693197
 H        -1.976393        -2.028487         1.546816
 H         0.046555        -0.859338         1.610502
 H         0.109868        -1.858522         0.145763
 H        -0.985220         1.514629         2.182236
 H        -2.330466         2.067634         0.980729
