19
Iteration:  1580
 C        -3.231640         0.087764         2.899738
 C        -2.459503         0.124438         1.526212
 C        -3.152922        -0.626644         0.468106
 C        -1.809385        -1.190149         1.079955
 C        -0.494933        -1.140777         0.368356
 C        -0.202374         0.084655        -0.399756
 O         0.523541        -0.008652        -1.337495
 O        -0.816092         1.251953        -0.073033
 C        -1.735814         1.444520         1.226148
 H        -4.096219         0.756363         2.787472
 H        -3.676911        -0.874231         3.243965
 H        -2.612972         0.510760         3.748014
 H        -4.083217        -1.146107         0.828772
 H        -3.145993        -0.545128        -0.646262
 H        -1.994457        -1.907770         1.859176
 H         0.425815        -1.175569         0.947215
 H        -0.385423        -1.942226        -0.348257
 H        -1.047022         1.758243         2.114118
 H        -2.421461         2.302980         0.889443
