19
Iteration:   597charge 0 multiplicity 1
 C        -3.396751         0.305557         2.694788
 C        -2.484602         0.063899         1.468642
 C        -3.045326        -0.812760         0.392844
 C        -1.750654        -1.189391         1.111939
 C        -0.422182        -1.117083         0.439164
 C        -0.213741         0.101403        -0.339517
 O         0.197531         0.114075        -1.495412
 O        -0.744770         1.263043         0.138292
 C        -1.474025         1.274628         1.359808
 H        -3.388694         1.386551         2.972768
 H        -4.397657        -0.041965         2.376759
 H        -3.157905        -0.267824         3.601352
 H        -3.996802        -1.413822         0.626033
 H        -3.049286        -0.504025        -0.699403
 H        -1.802109        -2.091974         1.807155
 H         0.381704        -1.049431         1.124106
 H        -0.253798        -1.965192        -0.315212
 H        -0.870947         1.183248         2.267651
 H        -2.025975         2.255036         1.304320
