19
Iteration:  2127
 C        -3.367049         0.356180         2.712184
 C        -2.398225        -0.022581         1.566171
 C        -2.886767        -0.695371         0.299513
 C        -1.755537        -1.277733         1.166635
 C        -0.341126        -1.074433         0.549186
 C        -0.323701         0.116152        -0.445076
 O         0.225464         0.135220        -1.497998
 O        -0.965854         1.238981         0.082013
 C        -1.503629         1.155206         1.353699
 H        -3.898618         1.263584         2.420308
 H        -4.111320        -0.451444         2.725563
 H        -3.089729         0.463222         3.762089
 H        -3.942670        -1.002481         0.357203
 H        -2.738948        -0.127011        -0.615971
 H        -2.031372        -2.203819         1.723031
 H         0.439191        -0.959248         1.436689
 H         0.053684        -1.884989        -0.020696
 H        -0.623715         1.161491         2.032114
 H        -2.069245         2.097808         1.290122
