19
Iteration:   796charge 0 multiplicity 1
 C        -2.855295         0.449603         2.935308
 C        -2.540610         0.118309         1.458664
 C        -3.329046        -1.119254         0.939064
 C        -1.853622        -1.239869         0.956058
 C        -1.146689        -0.972625        -0.404328
 C        -0.079356         0.161205        -0.259411
 O         0.948443         0.162820        -0.914834
 O        -0.479876         1.250848         0.468739
 C        -2.076134         1.158328         0.564260
 H        -3.451936         1.316191         3.089748
 H        -3.519010        -0.250339         3.367550
 H        -2.015179         0.621008         3.514410
 H        -3.917158        -1.595646         1.670033
 H        -3.783619        -0.992094        -0.046871
 H        -1.359039        -1.922970         1.729227
 H        -0.702823        -1.868304        -0.866396
 H        -2.006138        -0.731338        -1.121700
 H        -2.507147         2.107209         0.952989
 H        -2.393788         1.067480        -0.506601
