19
Iteration:  3598charge 0 multiplicity 1
 C        -3.189716         0.092600         2.840265
 C        -2.422332         0.182195         1.594804
 C        -3.138403        -0.306477         0.305628
 C        -2.090239        -1.172792         0.893091
 C        -0.759052        -1.256293         0.218339
 C        -0.201065         0.075181        -0.324086
 O         0.498281        -0.013000        -1.338084
 O        -0.774692         1.246103         0.117108
 C        -1.309378         1.227448         1.424556
 H        -4.227635        -0.134114         2.661785
 H        -2.762772        -0.636944         3.556839
 H        -3.105754         0.966125         3.458073
 H        -4.195374        -0.513455         0.641783
 H        -3.327159         0.176690        -0.616534
 H        -2.496563        -2.129389         1.208205
 H         0.009843        -1.757721         0.882395
 H        -0.758660        -1.972492        -0.582001
 H        -0.497778         0.926961         2.046754
 H        -1.650828         2.281727         1.733336
