19
Iteration:  2128
 C        -3.380657         0.348768         2.712034
 C        -2.396858        -0.016200         1.570966
 C        -2.885370        -0.698856         0.306369
 C        -1.758488        -1.288179         1.164709
 C        -0.347282        -1.078594         0.559197
 C        -0.329858         0.129719        -0.451951
 O         0.226836         0.139265        -1.502001
 O        -0.952063         1.235777         0.078932
 C        -1.501342         1.156382         1.354911
 H        -3.893419         1.280761         2.397620
 H        -4.088120        -0.464765         2.768796
 H        -3.095995         0.483485         3.744989
 H        -3.916038        -0.991082         0.386897
 H        -2.710530        -0.143708        -0.628424
 H        -2.035485        -2.191919         1.713034
 H         0.409279        -0.946886         1.423597
 H         0.037264        -1.885007        -0.023867
 H        -0.599844         1.174217         1.985911
 H        -2.076691         2.080902         1.288436
