19
Iteration:  2216charge 0 multiplicity 1
 C        -3.166450         0.204581         2.870253
 C        -2.433274         0.002210         1.534604
 C        -2.985349        -0.578352         0.315578
 C        -1.830045        -1.312651         1.075960
 C        -0.507336        -1.185837         0.459155
 C        -0.269975         0.072445        -0.327781
 O         0.289139         0.165141        -1.415777
 O        -0.707819         1.240097         0.135626
 C        -1.752219         1.344214         1.137305
 H        -4.249810         0.529619         2.748748
 H        -3.192619        -0.676717         3.496531
 H        -2.650990         0.980048         3.433426
 H        -3.983612        -1.037644         0.347480
 H        -2.951823        -0.135656        -0.727791
 H        -1.986248        -2.320526         1.419206
 H         0.312958        -1.013866         1.328461
 H        -0.106295        -2.081866        -0.044466
 H        -1.239947         1.951247         1.970734
 H        -2.678576         1.798649         0.617326
