19
Iteration:  3462
 C        -3.190463         0.207310         2.962120
 C        -2.467105         0.094971         1.661056
 C        -3.174021        -0.332526         0.298376
 C        -1.980336        -1.162511         0.826508
 C        -0.568158        -1.324211         0.159611
 C        -0.130222        -0.034628        -0.354358
 O         0.479685         0.129105        -1.414977
 O        -0.802026         1.099588         0.192182
 C        -1.524523         1.288003         1.428830
 H        -2.958550         1.203478         3.406955
 H        -4.208986         0.476547         2.805254
 H        -2.988484        -0.628666         3.637128
 H        -4.334913        -0.395296         0.294334
 H        -2.937405         0.372428        -0.462136
 H        -2.227174        -2.227468         1.136417
 H         0.068040        -1.680786         0.904750
 H        -0.589361        -2.185184        -0.570291
 H        -0.838446         1.493793         2.199094
 H        -2.166288         2.105164         1.315913
