19
Iteration:  2557
 C        -3.205791         0.060534         2.812091
 C        -2.491227         0.086035         1.458187
 C        -3.005424        -0.608301         0.163136
 C        -1.819432        -1.209678         1.036716
 C        -0.400287        -1.054365         0.634431
 C        -0.334815         0.094848        -0.304643
 O         0.124481        -0.085842        -1.416294
 O        -0.744456         1.364746         0.084533
 C        -1.489781         1.374707         1.249264
 H        -4.199074         0.695156         2.758402
 H        -3.480170        -1.001442         3.064848
 H        -2.514822         0.347549         3.621996
 H        -3.989362        -1.062425         0.321145
 H        -2.908107        -0.116876        -0.726278
 H        -2.197729        -2.151059         1.500448
 H         0.314993        -0.864358         1.393025
 H        -0.033532        -1.916942         0.068261
 H        -0.818597         1.381806         2.166817
 H        -2.063404         2.337708         1.429582
