19
Iteration:  4076charge 0 multiplicity 1
 C        -3.169604         0.204902         2.776690
 C        -2.361061         0.082127         1.542586
 C        -2.996339        -0.299573         0.201980
 C        -2.040383        -1.234629         0.868700
 C        -0.630751        -1.279633         0.323567
 C        -0.313985        -0.005676        -0.307446
 O         0.279314         0.096455        -1.339873
 O        -0.790510         1.271098         0.231343
 C        -1.356292         1.161454         1.457265
 H        -4.238957         0.226411         2.446248
 H        -3.020021        -0.655742         3.500592
 H        -2.925175         1.258411         3.103164
 H        -4.054548        -0.702698         0.178836
 H        -2.715018         0.099194        -0.821346
 H        -2.286660        -2.210172         1.305060
 H         0.017430        -1.649200         1.068795
 H        -0.665388        -1.996748        -0.464555
 H        -0.467141         1.126101         2.210010
 H        -1.811313         2.114490         1.742481
