19
Iteration:  3196
 C        -3.237314         0.037979         3.003673
 C        -2.522315         0.036958         1.509589
 C        -3.313417        -0.663298         0.420594
 C        -1.916234        -1.185733         0.956047
 C        -0.585894        -1.069060         0.333048
 C        -0.160861         0.152473        -0.406711
 O         0.598722         0.078697        -1.369275
 O        -0.689924         1.255038         0.007868
 C        -1.581013         1.412028         1.220471
 H        -2.719240         0.666067         3.611230
 H        -4.318302         0.258238         3.043233
 H        -3.139511        -1.030495         3.276632
 H        -3.999436        -1.139914         1.088426
 H        -3.722188        -0.265074        -0.523653
 H        -2.203117        -2.136372         1.507641
 H         0.235426        -1.208927         1.157262
 H        -0.402051        -1.967395        -0.193050
 H        -1.084993         1.569041         2.220071
 H        -2.134147         2.300929         1.029631
