19
Iteration:  1958charge 0 multiplicity 1
 C        -3.278741         0.216763         2.863519
 C        -2.435469         0.108142         1.561754
 C        -3.186311        -0.798735         0.551804
 C        -1.869286        -1.181147         1.187282
 C        -0.645119        -1.144800         0.256888
 C        -0.157677         0.122846        -0.443550
 O         0.713905         0.274668        -1.267404
 O        -1.002272         1.135642        -0.144444
 C        -1.547830         1.300768         1.193383
 H        -4.161919         0.843629         2.827959
 H        -3.677300        -0.764914         3.147182
 H        -2.664696         0.492100         3.736470
 H        -4.187379        -1.149413         0.885102
 H        -3.310457        -0.410870        -0.433364
 H        -1.661115        -1.948314         1.882935
 H         0.167795        -1.721748         0.855993
 H        -0.764526        -1.862977        -0.630122
 H        -0.688635         1.159489         1.864300
 H        -1.752535         2.355539         1.280486
