19
Iteration:  4727
 C        -3.141448         0.108464         2.821368
 C        -2.427148         0.148361         1.521455
 C        -3.204312        -0.399427         0.311980
 C        -2.028173        -1.175034         1.027899
 C        -0.722571        -1.187213         0.259601
 C        -0.326763         0.053480        -0.419273
 O         0.548882         0.062055        -1.315519
 O        -0.744531         1.301098         0.141026
 C        -1.391655         1.165501         1.370704
 H        -3.883670         0.822665         3.102746
 H        -3.705338        -0.809582         2.888695
 H        -2.459719         0.120248         3.645972
 H        -4.270783        -0.772095         0.482372
 H        -3.104079         0.027783        -0.703975
 H        -2.281174        -2.228693         1.366850
 H         0.091305        -1.515854         0.952132
 H        -0.870209        -2.020771        -0.444445
 H        -0.544573         0.885831         2.035076
 H        -1.694846         2.155570         1.628783
