19
Iteration:  2726charge 0 multiplicity 1
 C        -2.996657         0.222706         3.080823
 C        -2.448966         0.043407         1.597210
 C        -3.163848        -0.584681         0.410434
 C        -1.954734        -1.239429         0.857517
 C        -0.544251        -1.190165         0.333284
 C        -0.154723         0.033806        -0.381531
 O         0.735230         0.260065        -1.207219
 O        -0.998507         1.072443        -0.034216
 C        -1.863379         1.374387         1.067471
 H        -3.796342         0.895256         3.102999
 H        -3.457184        -0.723735         3.402042
 H        -2.058805         0.340299         3.640128
 H        -4.175250        -1.230756         0.567744
 H        -3.303478         0.040177        -0.459048
 H        -2.165972        -2.163438         1.373439
 H         0.098679        -1.148086         1.213866
 H        -0.356528        -2.138585        -0.140222
 H        -1.169503         1.926366         1.752248
 H        -2.641670         1.998710         0.711930
