19
Iteration:  1450charge 0 multiplicity 1
 C        -3.229263         0.201012         2.812964
 C        -2.474275         0.132795         1.536509
 C        -3.126852        -0.794738         0.465793
 C        -1.898553        -1.218356         1.158408
 C        -0.619699        -1.219237         0.392070
 C        -0.206658         0.171835        -0.387029
 O         0.548011         0.065622        -1.325482
 O        -0.910609         1.288783        -0.128899
 C        -1.476106         1.440389         1.261847
 H        -4.138849         0.668239         2.480971
 H        -3.469585        -0.849434         3.030199
 H        -2.763523         0.617066         3.708272
 H        -4.058572        -1.286629         0.897909
 H        -3.070509        -0.573254        -0.615843
 H        -1.961843        -2.027880         1.899166
 H         0.226221        -1.674190         1.026761
 H        -0.758005        -1.818588        -0.498063
 H        -0.670626         1.297244         1.880979
 H        -1.918023         2.456537         1.453788
