19
Iteration:  3277
 C        -3.354572         0.185014         2.827939
 C        -2.423869         0.040708         1.593381
 C        -3.117631        -0.473403         0.351494
 C        -1.948433        -1.230594         0.985663
 C        -0.435475        -1.196723         0.388728
 C        -0.241758         0.106279        -0.421281
 O         0.443804         0.102089        -1.463560
 O        -0.859908         1.276706         0.085994
 C        -1.446901         1.180040         1.441569
 H        -4.443314         0.447003         2.787814
 H        -3.296137        -0.675152         3.466588
 H        -2.981463         1.017987         3.391023
 H        -4.100933        -0.873303         0.411916
 H        -2.840150        -0.053882        -0.674017
 H        -2.285746        -2.173058         1.352668
 H         0.366958        -1.445859         1.158404
 H        -0.415332        -1.958047        -0.464474
 H        -0.581595         1.189602         2.142077
 H        -1.904242         2.166642         1.343516
