19
Iteration:  1223
 C        -3.134277         0.188900         2.965121
 C        -2.514586         0.065261         1.651795
 C        -3.138456        -0.509938         0.377545
 C        -1.952500        -1.232258         1.061197
 C        -0.536541        -1.165898         0.392044
 C        -0.148490         0.056813        -0.423940
 O         0.612313         0.065552        -1.369083
 O        -0.829296         1.192846        -0.010897
 C        -1.768551         1.312900         1.103982
 H        -4.119695         0.791849         3.098320
 H        -3.322063        -0.841626         3.397860
 H        -2.325067         0.669883         3.596975
 H        -4.154921        -0.909331         0.490402
 H        -2.993502         0.092124        -0.530577
 H        -2.135710        -2.198946         1.600633
 H         0.169476        -1.055499         1.202363
 H        -0.397717        -2.101106        -0.098296
 H        -1.192032         1.838277         1.965673
 H        -2.493149         2.022663         0.704132
