19
Iteration:  1173charge 0 multiplicity 1
 C        -3.003281         0.273888         2.798280
 C        -2.616036         0.197734         1.399747
 C        -3.224336        -0.898110         0.531363
 C        -1.882629        -1.212846         1.183672
 C        -0.682855        -1.214860         0.207794
 C        -0.222358         0.106292        -0.381958
 O         0.572910         0.150477        -1.343021
 O        -0.558952         1.223208         0.316989
 C        -1.839141         1.375350         0.996342
 H        -3.372870         1.244311         2.905845
 H        -3.813710        -0.346972         3.078411
 H        -2.197957         0.202017         3.491926
 H        -4.095508        -1.284003         1.013759
 H        -3.178951        -1.015253        -0.614836
 H        -1.728779        -1.626978         2.183246
 H         0.126180        -1.744195         0.802760
 H        -1.043306        -1.848483        -0.693344
 H        -1.494232         1.827132         1.873772
 H        -2.527503         2.123305         0.444709
