19
Iteration:  4851
 C        -3.295704         0.136690         2.765464
 C        -2.379056         0.104168         1.585206
 C        -3.079453        -0.362962         0.264675
 C        -2.007025        -1.191036         0.913107
 C        -0.579555        -1.192526         0.415585
 C        -0.219794        -0.003298        -0.391048
 O         0.245048         0.063934        -1.499899
 O        -0.684817         1.249784         0.155227
 C        -1.374565         1.190778         1.503693
 H        -3.739010         1.045635         3.078442
 H        -4.084760        -0.584512         2.806741
 H        -2.713404        -0.088553         3.651715
 H        -4.057677        -0.746538         0.265111
 H        -2.816563         0.316557        -0.520912
 H        -2.279538        -2.150670         1.238903
 H        -0.018731        -1.286233         1.393645
 H        -0.449246        -2.159457        -0.084586
 H        -0.612182         1.211138         2.358405
 H        -1.734222         2.277550         1.526358
