19
Iteration:  4328
 C        -3.109412         0.131991         2.945582
 C        -2.556105         0.063873         1.494846
 C        -3.367242        -0.378966         0.296904
 C        -2.086674        -1.232829         0.878487
 C        -0.680904        -1.173663         0.274222
 C        -0.131324         0.111463        -0.387556
 O         0.637767         0.066624        -1.387033
 O        -0.715534         1.296102         0.143474
 C        -1.475653         1.150592         1.440630
 H        -4.214702         0.106751         2.809019
 H        -2.790647        -0.728503         3.630157
 H        -2.843563         1.066414         3.488588
 H        -4.296937        -0.779059         0.666581
 H        -3.367594         0.042101        -0.640974
 H        -2.346928        -2.251499         1.253378
 H         0.081598        -1.404254         1.148133
 H        -0.544240        -1.985686        -0.443191
 H        -0.621079         0.897892         2.080216
 H        -1.681131         2.204282         1.470163
