19
Iteration:  3138
 C        -3.053216         0.257880         2.965752
 C        -2.472811         0.083804         1.505881
 C        -3.071446        -0.703043         0.379595
 C        -1.873661        -1.296883         0.981329
 C        -0.563319        -1.351398         0.206110
 C        -0.274323         0.135065        -0.363559
 O         0.596313         0.176885        -1.198063
 O        -0.965774         1.285107         0.053961
 C        -1.691192         1.361521         1.224129
 H        -2.787024        -0.519445         3.775330
 H        -2.891024         1.336875         3.238687
 H        -4.115075         0.099956         2.984035
 H        -4.025890        -1.252222         0.144110
 H        -2.845408        -0.158623        -0.520490
 H        -2.135571        -1.948703         1.814483
 H         0.239081        -1.736908         0.785945
 H        -0.757147        -1.841122        -0.797336
 H        -1.057983         1.602488         2.073519
 H        -2.472965         2.221071         0.907948
