19
Iteration:  3950charge 0 multiplicity 1
 C        -3.200330         0.102491         2.996123
 C        -2.480817         0.150667         1.610070
 C        -3.242733        -0.250712         0.365106
 C        -2.100220        -1.141023         0.857392
 C        -0.713189        -1.327998         0.216418
 C        -0.197646        -0.048987        -0.464218
 O         0.622212         0.120774        -1.357897
 O        -0.676736         1.190321         0.138011
 C        -1.456590         1.214210         1.387279
 H        -3.538016        -0.926431         3.083855
 H        -2.361161         0.515374         3.601605
 H        -3.985579         0.857634         3.103710
 H        -4.261128        -0.635627         0.312181
 H        -2.966584         0.376902        -0.496052
 H        -2.532816        -2.128504         1.283269
 H         0.021039        -1.747714         0.962747
 H        -0.824638        -2.144452        -0.550819
 H        -0.723651         1.285596         2.222975
 H        -2.009760         2.223174         1.264243
