19
Iteration:  3410charge 0 multiplicity 1
 C        -3.244944         0.094026         2.786504
 C        -2.453170         0.234223         1.513273
 C        -3.181394        -0.490897         0.340082
 C        -2.032634        -1.201961         0.933381
 C        -0.647174        -1.162255         0.331107
 C        -0.256836         0.137185        -0.393426
 O         0.429250         0.014609        -1.428295
 O        -0.726263         1.306672         0.163169
 C        -1.333681         1.178060         1.416451
 H        -2.473578        -0.054353         3.644165
 H        -3.741195         1.044159         3.045147
 H        -3.960788        -0.713146         2.806966
 H        -4.181846        -0.999631         0.538030
 H        -3.164147        -0.271168        -0.687332
 H        -2.267033        -2.037340         1.676974
 H        -0.010396        -1.386239         1.299453
 H        -0.325515        -1.959717        -0.443078
 H        -0.552493         0.669394         2.114548
 H        -1.536212         2.153033         1.997131
