19
Iteration:  4737
 C        -3.241803         0.057267         2.890032
 C        -2.512327         0.150210         1.559875
 C        -3.109306        -0.376137         0.347646
 C        -1.989275        -1.210889         1.005488
 C        -0.768275        -1.243494         0.224992
 C        -0.278147         0.060618        -0.432390
 O         0.491845         0.096254        -1.323290
 O        -0.699367         1.240652         0.086351
 C        -1.342120         1.258676         1.371377
 H        -3.947237         0.934015         2.861166
 H        -3.751381        -0.910060         3.016407
 H        -2.556386         0.124013         3.749165
 H        -4.202257        -0.681005         0.353320
 H        -2.763077         0.006030        -0.633573
 H        -2.312010        -1.950443         1.778163
 H         0.125685        -1.510189         0.814596
 H        -0.711579        -1.937633        -0.644792
 H        -0.754452         0.992674         2.197107
 H        -1.671646         2.227424         1.580606
