19
Iteration:  3440
 C        -3.177842         0.178384         2.904369
 C        -2.421893         0.063001         1.546016
 C        -3.065210        -0.348707         0.245620
 C        -2.074712        -1.267679         0.945172
 C        -0.687293        -1.274208         0.342642
 C        -0.338983         0.061087        -0.417929
 O         0.456840         0.149820        -1.335155
 O        -0.732568         1.238818         0.143298
 C        -1.411676         1.181850         1.362288
 H        -2.564816         0.907822         3.466096
 H        -4.047365         0.789362         2.901283
 H        -3.158210        -0.767858         3.441438
 H        -4.136394        -0.773320         0.343189
 H        -2.861976         0.134900        -0.688531
 H        -2.467332        -2.271759         1.216062
 H         0.073852        -1.492589         1.050644
 H        -0.480341        -1.986789        -0.506463
 H        -0.666030         1.044704         2.105722
 H        -1.911463         2.110852         1.489935
