19
Iteration:   533charge 0 multiplicity 1
 C        -3.361727         0.155651         2.687917
 C        -2.466956         0.101007         1.479448
 C        -2.946183        -0.461741         0.233953
 C        -1.697310        -1.198443         1.010313
 C        -0.204280        -1.136721         0.612310
 C        -0.219310         0.022472        -0.338940
 O        -0.165833        -0.041670        -1.507418
 O        -0.561533         1.247680         0.287750
 C        -1.631718         1.331290         1.278080
 H        -4.150044         0.999030         2.467276
 H        -3.841228        -0.742411         2.977327
 H        -2.877330         0.323657         3.606821
 H        -3.805199        -1.161317         0.360518
 H        -2.923660         0.172155        -0.712988
 H        -1.960481        -2.264723         1.354773
 H         0.353012        -1.050281         1.491875
 H         0.112626        -2.076671         0.108128
 H        -1.303513         1.679462         2.246664
 H        -2.402218         2.096341         0.944533
