19
Iteration:  2380charge 0 multiplicity 1
 C        -2.902190         0.048831         2.884871
 C        -2.490886         0.097327         1.430790
 C        -3.195761        -0.717230         0.496820
 C        -1.935708        -1.249376         1.107216
 C        -0.620721        -1.078900         0.343354
 C        -0.267516         0.163406        -0.368732
 O         0.676513         0.031605        -1.108903
 O        -0.914795         1.336683        -0.169948
 C        -1.817754         1.425383         1.137327
 H        -3.876461         0.652619         3.002674
 H        -3.071978        -1.023562         3.021974
 H        -1.985201         0.359481         3.388993
 H        -4.184082        -1.198881         0.690671
 H        -3.129997        -0.572873        -0.614208
 H        -1.992776        -1.985911         1.887431
 H         0.169884        -1.236168         1.093949
 H        -0.549935        -1.911679        -0.314470
 H        -1.039620         1.512037         1.882614
 H        -2.523623         2.282752         0.927700
