19
Iteration:  2108charge 0 multiplicity 1
 C        -3.328418         0.264545         2.738802
 C        -2.497101         0.076775         1.499374
 C        -2.940878        -0.641465         0.289791
 C        -1.703426        -1.201743         1.040984
 C        -0.282675        -1.124127         0.581894
 C        -0.256269         0.136370        -0.347705
 O         0.211116         0.056970        -1.450526
 O        -1.010185         1.201824         0.011936
 C        -1.582343         1.255098         1.413010
 H        -3.361356         1.378062         2.865404
 H        -4.217841        -0.285721         2.938170
 H        -2.658791         0.014986         3.554168
 H        -3.693103        -1.372303         0.356982
 H        -2.691258        -0.301868        -0.732153
 H        -1.908108        -2.111179         1.561431
 H         0.440181        -0.993808         1.326247
 H        -0.059134        -1.981149        -0.044513
 H        -0.645359         1.148368         1.986767
 H        -2.106906         2.214685         1.491836
