19
Iteration:  2061
 C        -3.188288        -0.046785         2.888760
 C        -2.481951         0.174479         1.498687
 C        -3.055949        -0.622856         0.361650
 C        -1.885139        -1.236689         1.073875
 C        -0.439688        -1.003880         0.598036
 C        -0.296046         0.093101        -0.449961
 O         0.428766        -0.057582        -1.441075
 O        -0.783807         1.325282         0.017146
 C        -1.706951         1.397099         1.167372
 H        -3.610155         0.856076         3.276248
 H        -3.886790        -0.865588         2.752500
 H        -2.493229        -0.361501         3.665407
 H        -4.043279        -0.941402         0.801420
 H        -3.099884        -0.128542        -0.589286
 H        -1.900087        -2.182701         1.738226
 H         0.303117        -0.608400         1.367357
 H        -0.057968        -1.842533         0.072031
 H        -1.177329         1.652074         2.097309
 H        -2.468288         2.122113         0.816677
