19
Iteration:  3007charge 0 multiplicity 1
 C        -3.299828         0.096460         2.902791
 C        -2.504477         0.085948         1.525666
 C        -3.123946        -0.792108         0.358489
 C        -1.810439        -1.245377         1.010777
 C        -0.458393        -1.009070         0.447951
 C        -0.200830         0.156319        -0.391352
 O         0.324999         0.082716        -1.492760
 O        -0.706905         1.281311         0.107479
 C        -1.598000         1.328598         1.227950
 H        -4.327541         0.553398         2.783465
 H        -3.607868        -0.883107         3.320295
 H        -2.790523         0.648241         3.668876
 H        -3.998842        -1.389838         0.618609
 H        -3.000167        -0.422405        -0.685038
 H        -1.816476        -1.893994         1.849975
 H         0.092622        -0.740622         1.431229
 H         0.026650        -2.001804         0.120762
 H        -1.050539         1.711530         2.118197
 H        -2.227108         2.182346         0.827112
