19
Iteration:  1188charge 0 multiplicity 1
 C        -3.024549         0.318284         2.817912
 C        -2.459877         0.052775         1.460623
 C        -3.234642        -0.822996         0.478769
 C        -1.876507        -1.216499         1.082972
 C        -0.650320        -1.205988         0.261565
 C        -0.237710         0.089572        -0.285719
 O         0.494766         0.092764        -1.277398
 O        -0.633609         1.292194         0.209016
 C        -1.789898         1.386429         0.986526
 H        -3.530062         1.309619         3.028794
 H        -3.678848        -0.549211         3.142167
 H        -2.161958         0.177634         3.543480
 H        -4.117202        -1.357213         0.870600
 H        -3.354464        -0.473746        -0.500104
 H        -2.025629        -2.113317         1.715090
 H         0.238783        -1.447612         0.784983
 H        -0.643886        -1.932841        -0.491600
 H        -1.533307         1.990066         1.930526
 H        -2.443647         2.056845         0.331307
