19
Iteration:  4023charge 0 multiplicity 1
 C        -3.321370         0.071446         2.886079
 C        -2.522848         0.196179         1.578090
 C        -3.218990        -0.387073         0.326321
 C        -2.078955        -1.160469         0.977202
 C        -0.700481        -1.146074         0.264079
 C        -0.250741         0.036475        -0.489686
 O         0.514162         0.110943        -1.439191
 O        -0.538154         1.135847         0.152866
 C        -1.353036         1.180950         1.467734
 H        -4.340110        -0.070196         2.558775
 H        -2.810762        -0.827410         3.323499
 H        -3.183652         0.966979         3.531161
 H        -4.242994        -0.757484         0.562832
 H        -3.372764         0.270509        -0.540697
 H        -2.232382        -2.081833         1.574744
 H        -0.001935        -1.259931         1.137447
 H        -0.521453        -2.037311        -0.299727
 H        -0.522040         1.215696         2.197563
 H        -1.784679         2.172012         1.300469
