19
Iteration:  3691charge 0 multiplicity 1
 C        -3.327808         0.167165         2.818278
 C        -2.409775         0.139255         1.622620
 C        -3.031149        -0.323070         0.280552
 C        -2.094380        -1.162053         0.978120
 C        -0.765374        -1.282138         0.156853
 C        -0.308270        -0.003416        -0.418790
 O         0.336897         0.073868        -1.471655
 O        -0.538228         1.165778         0.268337
 C        -1.298328         1.256509         1.518299
 H        -3.375727        -0.872979         3.242590
 H        -3.042064         0.874912         3.568769
 H        -4.377997         0.438959         2.649718
 H        -4.074238        -0.416639         0.306971
 H        -2.586088         0.129591        -0.619283
 H        -2.270527        -2.150200         1.470943
 H        -0.014174        -1.662637         0.899309
 H        -0.659523        -2.072460        -0.648498
 H        -0.600033         1.201715         2.414515
 H        -1.715771         2.224438         1.385555
