19
Iteration:  1196charge 0 multiplicity 1
 C        -3.045069         0.275916         2.899105
 C        -2.435682         0.054404         1.580679
 C        -3.231909        -0.775305         0.421309
 C        -1.915787        -1.288757         1.014759
 C        -0.596594        -1.269048         0.284410
 C        -0.240069         0.097542        -0.318656
 O         0.489189         0.081360        -1.259530
 O        -0.648408         1.349524         0.139478
 C        -1.764173         1.422423         0.984840
 H        -3.578909         1.178445         2.844411
 H        -3.713503        -0.482606         3.249249
 H        -2.295003         0.425687         3.667106
 H        -4.071485        -1.356857         0.748100
 H        -3.340111        -0.254535        -0.546911
 H        -2.053787        -2.114319         1.695680
 H         0.191018        -1.391785         1.062101
 H        -0.538240        -2.098439        -0.462976
 H        -1.483400         2.063690         1.786741
 H        -2.570285         1.967654         0.371683
