19
Iteration:  1998
 C        -3.172231         0.318734         2.890190
 C        -2.459665         0.015694         1.590257
 C        -3.064106        -0.794862         0.429199
 C        -1.838966        -1.301856         1.040510
 C        -0.631988        -1.172272         0.274637
 C        -0.291449         0.073609        -0.472024
 O         0.610739         0.225930        -1.231313
 O        -0.958371         1.244942        -0.050848
 C        -1.595411         1.283473         1.233709
 H        -4.107975         0.818701         2.438239
 H        -3.472218        -0.457307         3.621751
 H        -2.650377         1.125868         3.435882
 H        -4.084528        -1.208798         0.696518
 H        -2.972601        -0.249957        -0.480144
 H        -1.998729        -2.019423         1.888955
 H         0.286182        -1.143226         0.888323
 H        -0.497742        -2.066975        -0.330854
 H        -0.808214         1.455345         2.060609
 H        -2.247653         2.175896         1.338815
