19
Iteration:  2187
 C        -3.273713         0.130406         2.771181
 C        -2.529599         0.143050         1.453141
 C        -2.977451        -0.764342         0.289679
 C        -1.763687        -1.150903         1.207574
 C        -0.504957        -1.175846         0.441612
 C        -0.223434         0.107726        -0.372121
 O         0.208352         0.056509        -1.490193
 O        -0.682856         1.295409         0.169502
 C        -1.624067         1.397099         1.284691
 H        -4.368340         0.137055         2.598445
 H        -3.122882        -0.866816         3.221406
 H        -2.894053         0.942893         3.397607
 H        -3.936612        -1.359773         0.455716
 H        -2.817529        -0.332132        -0.673862
 H        -1.902922        -2.101776         1.734868
 H         0.303797        -1.126798         1.117245
 H        -0.393439        -2.073594        -0.241656
 H        -1.047660         1.658622         2.184526
 H        -2.230038         2.286826         1.311546
