19
Iteration:  3190
 C        -3.208128         0.038182         2.979111
 C        -2.506714         0.081308         1.524256
 C        -3.287144        -0.661822         0.449392
 C        -1.924624        -1.205463         0.970946
 C        -0.580653        -1.172197         0.310795
 C        -0.161349         0.099902        -0.444711
 O         0.608376         0.117355        -1.349633
 O        -0.684753         1.288470         0.016254
 C        -1.660775         1.439253         1.230886
 H        -2.504177         0.576377         3.776356
 H        -4.213920         0.499710         3.022987
 H        -3.269677        -1.047191         3.156398
 H        -4.222051        -1.194581         0.894061
 H        -3.547884        -0.286179        -0.527008
 H        -2.185617        -2.049217         1.558134
 H        -0.011440        -1.143091         1.234008
 H        -0.267103        -2.077102        -0.300239
 H        -1.019721         1.512920         2.119952
 H        -2.334270         2.327784         1.028965
