19
Iteration:   733
 C        -2.825900         0.327810         2.964563
 C        -2.461059         0.046057         1.517597
 C        -3.362412        -0.795417         0.602785
 C        -1.998784        -1.236044         0.992003
 C        -0.746349        -1.246807         0.003242
 C        -0.177397         0.084595        -0.313855
 O         0.839984         0.223973        -1.026640
 O        -0.728081         1.213432         0.149374
 C        -1.958218         1.350777         0.864491
 H        -3.984430         0.627827         3.091087
 H        -2.642790        -0.684037         3.464643
 H        -2.234537         1.218858         3.420941
 H        -4.152053        -1.285640         1.080145
 H        -3.619313        -0.417362        -0.356625
 H        -2.217498        -2.043870         1.643732
 H         0.045758        -1.957044         0.328819
 H        -0.991078        -1.657369        -0.991314
 H        -1.723766         2.167868         1.619272
 H        -2.652841         1.699816         0.068321
