19
Iteration:  4247charge 0 multiplicity 1
 C        -3.139802         0.145005         2.962169
 C        -2.475333         0.067140         1.593197
 C        -3.261383        -0.403132         0.281524
 C        -2.117822        -1.185791         0.798449
 C        -0.796015        -1.233776         0.149769
 C        -0.217028         0.069995        -0.389791
 O         0.625503         0.087703        -1.256149
 O        -0.716163         1.252546         0.140977
 C        -1.386072         1.186673         1.431995
 H        -3.223034        -0.893774         3.333444
 H        -2.349201         0.554788         3.554696
 H        -4.068561         0.727892         2.856815
 H        -4.312885        -0.666541         0.540887
 H        -3.175104         0.050449        -0.798922
 H        -2.337982        -2.017615         1.457241
 H        -0.029498        -1.584463         0.905600
 H        -0.641257        -1.934202        -0.725998
 H        -0.575048         1.322694         2.203197
 H        -1.873126         2.279942         1.477113
