19
Iteration:  1212charge 0 multiplicity 1
 C        -3.110375         0.256234         3.037177
 C        -2.417760         0.051897         1.545091
 C        -3.149680        -0.576251         0.438867
 C        -1.959207        -1.322059         0.974661
 C        -0.570162        -1.230131         0.418649
 C        -0.215850         0.072363        -0.409098
 O         0.595312         0.081329        -1.356127
 O        -0.702196         1.283137         0.009924
 C        -1.876641         1.342126         1.089080
 H        -4.012820         1.009077         2.955072
 H        -3.509044        -0.765587         3.395121
 H        -2.433503         0.598530         3.881943
 H        -4.196902        -0.913943         0.548273
 H        -2.901967        -0.206393        -0.551902
 H        -2.233944        -2.191342         1.623727
 H         0.159730        -1.375714         1.207921
 H        -0.288598        -1.986323        -0.293832
 H        -1.421286         1.958701         1.960163
 H        -2.607331         1.946623         0.561861
