19
Iteration:  4080charge 0 multiplicity 1
 C        -3.139963         0.234625         2.768617
 C        -2.373889         0.085608         1.516083
 C        -3.035848        -0.330284         0.168308
 C        -2.054998        -1.241573         0.854051
 C        -0.629387        -1.317732         0.343754
 C        -0.361387         0.009867        -0.327830
 O         0.290093         0.107622        -1.339733
 O        -0.771321         1.287599         0.235976
 C        -1.334314         1.145286         1.477151
 H        -4.226428         0.147472         2.597076
 H        -3.072879        -0.611404         3.507631
 H        -3.039491         1.217487         3.286065
 H        -4.007737        -0.678136         0.188537
 H        -2.636047         0.140990        -0.719201
 H        -2.234302        -2.210228         1.420375
 H         0.085002        -1.606292         1.211771
 H        -0.498902        -2.034761        -0.517507
 H        -0.505211         1.184972         2.203311
 H        -1.775206         2.135225         1.768664
