19
Iteration:  3050
 C        -3.079697         0.145271         2.948541
 C        -2.409917         0.087345         1.574912
 C        -2.993391        -0.677529         0.195940
 C        -1.893058        -1.239844         1.038416
 C        -0.499982        -1.226328         0.458368
 C        -0.261414         0.075589        -0.285108
 O         0.423397         0.179096        -1.298312
 O        -0.986605         1.250575        -0.048304
 C        -1.700925         1.381797         1.196706
 H        -4.195924        -0.011322         2.926954
 H        -2.602253        -0.604060         3.620236
 H        -2.805891         1.108305         3.322851
 H        -4.044619        -1.017066        -0.001527
 H        -2.493318        -0.219677        -0.651608
 H        -2.125814        -2.152574         1.542405
 H         0.201654        -1.231509         1.340441
 H        -0.117877        -2.050152        -0.239058
 H        -0.936865         1.612835         1.956043
 H        -2.578147         2.174341         1.080786
