19
Iteration:  1989charge 0 multiplicity 1
 C        -3.259810         0.351044         2.847127
 C        -2.417750        -0.032401         1.607915
 C        -3.121785        -0.781154         0.495867
 C        -1.835830        -1.290781         1.107079
 C        -0.574653        -1.197069         0.260144
 C        -0.278034         0.140590        -0.440132
 O         0.654084         0.203758        -1.244522
 O        -0.983534         1.299572        -0.112853
 C        -1.567153         1.279442         1.226891
 H        -4.303766         0.802954         2.643316
 H        -3.364101        -0.608284         3.386143
 H        -2.719247         1.055701         3.522069
 H        -4.041970        -1.241386         0.946613
 H        -3.227630        -0.240749        -0.419823
 H        -1.915275        -2.292409         1.572113
 H         0.304023        -1.479200         0.993796
 H        -0.733924        -1.963348        -0.566651
 H        -0.725400         1.091970         1.914385
 H        -2.100876         2.227822         1.349025
