19
Iteration:  4993
 C        -3.223704         0.060684         2.914043
 C        -2.439859         0.155548         1.577433
 C        -3.106426        -0.384985         0.337782
 C        -2.011072        -1.170305         1.056583
 C        -0.778889        -1.298834         0.161064
 C        -0.207712         0.001607        -0.406403
 O         0.595903         0.114732        -1.342074
 O        -0.796393         1.160478         0.096249
 C        -1.436990         1.372781         1.344892
 H        -3.851530         1.032513         3.278296
 H        -3.983979        -0.800392         2.955225
 H        -2.531016        -0.246895         3.766498
 H        -4.071712        -0.694256         0.680218
 H        -2.803772         0.046821        -0.562283
 H        -2.363421        -2.098454         1.486350
 H         0.128130        -1.402727         0.790364
 H        -0.794796        -1.971491        -0.731294
 H        -0.758404         1.615286         2.157614
 H        -2.061593         2.314165         1.173251
