19
Iteration:  2968
 C        -3.428463         0.161001         2.716641
 C        -2.398495         0.084944         1.488371
 C        -2.904921        -0.771281         0.385631
 C        -1.734146        -1.182857         1.227128
 C        -0.431589        -1.110477         0.437889
 C        -0.267049         0.133478        -0.372845
 O         0.246140         0.146023        -1.484188
 O        -0.878395         1.245642         0.073045
 C        -1.529065         1.268812         1.304238
 H        -3.713086         1.194629         2.740139
 H        -4.315629        -0.449650         2.506931
 H        -2.983734         0.004584         3.767424
 H        -3.961795        -1.197049         0.483430
 H        -2.675455        -0.526920        -0.597645
 H        -1.732607        -1.959257         2.075912
 H         0.381656        -1.128674         1.116177
 H        -0.299206        -1.782472        -0.349346
 H        -0.856347         1.468387         2.175560
 H        -2.170564         2.144137         1.296817
