19
Iteration:   576charge 0 multiplicity 1
 C        -3.342168         0.141640         2.626540
 C        -2.465009         0.125488         1.385880
 C        -2.882063        -0.792869         0.298622
 C        -1.834189        -1.201303         1.232916
 C        -0.453581        -1.163406         0.547087
 C        -0.341649         0.141389        -0.388705
 O         0.031632         0.031037        -1.518357
 O        -0.544539         1.396185         0.214251
 C        -1.516837         1.359393         1.321634
 H        -3.430908         1.189485         3.078771
 H        -4.302506        -0.360309         2.587215
 H        -2.868436        -0.453194         3.399656
 H        -3.937825        -1.171725         0.470521
 H        -2.651706        -0.763442        -0.800088
 H        -2.110094        -1.949781         2.060690
 H         0.354761        -1.113371         1.216351
 H        -0.415010        -2.078101        -0.105408
 H        -1.015562         1.287667         2.268889
 H        -2.154624         2.297791         1.283040
