19
Iteration:  1839
 C        -3.219681         0.157209         2.867012
 C        -2.452359         0.051649         1.536060
 C        -3.117949        -0.651282         0.441790
 C        -1.840298        -1.276706         1.113788
 C        -0.497457        -1.161784         0.396411
 C        -0.263059         0.170424        -0.347095
 O         0.506820         0.061949        -1.309308
 O        -0.924957         1.269496        -0.078525
 C        -1.594874         1.386667         1.174045
 H        -4.022457         0.861302         2.755486
 H        -3.671270        -0.832826         3.082485
 H        -2.568770         0.355911         3.738255
 H        -3.960750        -1.433866         0.414013
 H        -2.976159        -0.217098        -0.555144
 H        -2.043849        -1.972547         1.903201
 H         0.315702        -1.256906         1.003329
 H        -0.277753        -1.896019        -0.414462
 H        -0.768028         1.734907         1.855612
 H        -2.273314         2.277832         1.122699
