19
Iteration:   101
 C        -3.369820         0.283805         2.656982
 C        -2.434797         0.063875         1.433893
 C        -2.878901        -0.500679         0.139946
 C        -1.929406        -1.323682         1.008858
 C        -0.532183        -1.348703         0.469102
 C        -0.326580         0.060665        -0.315225
 O        -0.024547         0.151589        -1.452712
 O        -0.529615         1.356492         0.285337
 C        -1.329332         1.207808         1.512921
 H        -4.181858        -0.312283         2.651997
 H        -2.791432         0.154047         3.604510
 H        -3.694893         1.345309         2.632297
 H        -3.936822        -0.734704         0.202819
 H        -2.610865        -0.247929        -0.866103
 H        -2.385643        -2.347522         1.419084
 H         0.206718        -1.432926         1.278217
 H        -0.483659        -2.044730        -0.329766
 H        -0.695776         1.013657         2.340451
 H        -1.713659         2.201487         1.755840
