19
Iteration:  3354charge 0 multiplicity 1
 C        -3.201368         0.215583         2.849755
 C        -2.399932         0.046270         1.558700
 C        -2.985716        -0.369152         0.195224
 C        -1.897258        -1.313627         0.938963
 C        -0.542807        -1.300430         0.319140
 C        -0.364893         0.015468        -0.347249
 O         0.261380         0.108307        -1.389080
 O        -0.655445         1.230430         0.197724
 C        -1.593477         1.310619         1.430287
 H        -3.309151        -0.792716         3.362112
 H        -2.670314         0.852613         3.551864
 H        -4.158861         0.717614         2.793240
 H        -3.997061        -0.829347         0.152015
 H        -2.671629         0.277896        -0.650449
 H        -2.386122        -2.210442         1.379414
 H         0.253611        -1.463547         1.158791
 H        -0.415330        -2.063019        -0.550853
 H        -0.943711         1.749818         2.324533
 H        -2.332884         2.117436         1.092471
