19
Iteration:   785
 C        -2.922246         0.375501         2.933568
 C        -2.531012         0.049663         1.462620
 C        -3.312785        -1.072705         0.920519
 C        -1.837281        -1.161645         0.960471
 C        -1.069839        -0.953320        -0.299889
 C        -0.072410         0.139674        -0.263773
 O         0.879219         0.093179        -0.992930
 O        -0.541627         1.238145         0.480440
 C        -2.039474         1.269010         0.561106
 H        -3.579264         1.188295         2.841198
 H        -3.314178        -0.509246         3.345101
 H        -2.106404         0.555682         3.550406
 H        -3.843799        -1.592727         1.654612
 H        -3.823429        -1.096972        -0.053338
 H        -1.281577        -1.724885         1.798617
 H        -0.591467        -1.894050        -0.553479
 H        -1.670192        -0.531176        -1.194568
 H        -2.099733         2.309611         0.946897
 H        -2.407197         1.275570        -0.512068
