19
Iteration:  4208charge 0 multiplicity 1
 C        -3.227330         0.190972         2.927497
 C        -2.471619         0.066850         1.496020
 C        -3.351436        -0.366942         0.373080
 C        -2.106490        -1.157656         0.818267
 C        -0.702238        -1.199371         0.188554
 C        -0.180123         0.060233        -0.424094
 O         0.595181         0.174690        -1.343027
 O        -0.641999         1.177686         0.204374
 C        -1.357188         1.095158         1.424637
 H        -3.346222        -0.694480         3.546853
 H        -2.813497         1.022670         3.567087
 H        -4.274286         0.592998         2.928369
 H        -4.239351        -0.911595         0.642726
 H        -3.303917        -0.001510        -0.648942
 H        -2.113541        -2.165470         1.322090
 H        -0.047032        -1.598828         0.956840
 H        -0.781602        -1.988513        -0.533493
 H        -0.597410         0.751858         2.144939
 H        -1.729384         2.125613         1.528580
