19
Iteration:   257
 C        -2.956720         0.141230         2.990558
 C        -2.450957         0.190445         1.492105
 C        -3.390687        -0.574717         0.574763
 C        -2.076700        -1.146800         0.846022
 C        -0.880596        -1.284527        -0.036318
 C        -0.182145         0.055695        -0.369584
 O         0.945831         0.105407        -0.878682
 O        -0.867101         1.242364        -0.115069
 C        -1.565587         1.343338         1.169414
 H        -4.050346         0.132740         2.893230
 H        -2.752754        -0.860960         3.363961
 H        -2.732246         0.876662         3.740863
 H        -4.094681        -1.037686         1.275359
 H        -3.794613        -0.269849        -0.443454
 H        -2.259229        -2.110046         1.435243
 H        -0.101005        -1.882142         0.405167
 H        -1.119984        -1.825841        -0.994610
 H        -0.899096         1.460816         1.995256
 H        -2.160522         2.300082         1.116464
