19
Iteration:  1869
 C        -3.007828         0.073229         2.960866
 C        -2.591809         0.138344         1.452639
 C        -3.231749        -0.747100         0.385249
 C        -1.968506        -1.151937         1.031220
 C        -0.608216        -1.059509         0.524969
 C        -0.152133         0.110282        -0.445464
 O         0.644689         0.131897        -1.379956
 O        -0.829019         1.175548         0.018635
 C        -1.732930         1.356505         1.140897
 H        -3.585309         0.933606         3.360269
 H        -3.609061        -0.802195         3.143055
 H        -2.048816         0.077754         3.455560
 H        -4.030835        -1.426174         0.688116
 H        -3.530046        -0.558538        -0.658624
 H        -2.033130        -1.812947         1.888935
 H         0.058304        -0.762227         1.459420
 H        -0.164942        -1.995995         0.035412
 H        -1.014109         1.651231         1.911599
 H        -2.335883         2.177160         0.769486
