19
Iteration:  2759
 C        -3.073313         0.194632         2.922018
 C        -2.476845         0.088747         1.553521
 C        -3.120918        -0.760625         0.406101
 C        -1.865978        -1.293553         1.124328
 C        -0.640947        -1.208450         0.257655
 C        -0.209578         0.128012        -0.339702
 O         0.712217         0.213811        -1.117781
 O        -1.046329         1.237862        -0.164670
 C        -1.698882         1.388293         1.120451
 H        -3.434191         1.131004         3.182787
 H        -3.754070        -0.612190         3.206706
 H        -2.228282         0.182579         3.642396
 H        -4.187076        -1.158861         0.669474
 H        -3.123500        -0.482447        -0.646593
 H        -1.895184        -2.130827         1.826436
 H         0.244051        -1.662960         0.640410
 H        -0.861547        -1.763514        -0.651029
 H        -0.871521         1.589955         1.858353
 H        -2.268144         2.277337         1.143878
