19
Iteration:  4647
 C        -3.155444         0.012516         2.969399
 C        -2.434149         0.220813         1.551787
 C        -3.157011        -0.380431         0.340552
 C        -2.045427        -1.183433         0.942440
 C        -0.677503        -1.314189         0.173643
 C        -0.284879         0.060261        -0.327358
 O         0.557571         0.067758        -1.248324
 O        -0.771000         1.253194         0.017530
 C        -1.474833         1.326224         1.340039
 H        -3.572415         0.983275         3.373884
 H        -3.924975        -0.749971         2.726454
 H        -2.403393        -0.486444         3.638727
 H        -4.020018        -0.932752         0.609663
 H        -3.021169         0.205513        -0.542172
 H        -2.182857        -2.054941         1.505791
 H         0.007914        -1.807246         0.838204
 H        -0.782775        -1.935183        -0.719474
 H        -0.677645         1.518777         2.028525
 H        -2.016332         2.264713         1.235176
