19
Iteration:  2940charge 0 multiplicity 1
 C        -3.338126         0.279221         2.719557
 C        -2.379344        -0.019864         1.514269
 C        -2.849559        -0.691658         0.293375
 C        -1.726422        -1.307371         1.176873
 C        -0.314837        -1.281826         0.549049
 C        -0.366441         0.097812        -0.387088
 O         0.247471         0.169980        -1.407691
 O        -1.055188         1.341457        -0.006849
 C        -1.534257         1.292838         1.340065
 H        -3.503578         1.426666         2.811295
 H        -4.383106        -0.024601         2.585822
 H        -2.954195         0.059548         3.678268
 H        -3.692321        -1.353152         0.222462
 H        -2.547188        -0.067843        -0.590548
 H        -2.032261        -2.170929         1.698737
 H         0.522294        -1.075282         1.310399
 H        -0.090212        -2.024429        -0.305921
 H        -0.793370         1.486345         2.109692
 H        -2.269062         2.165821         1.522158
