19
Iteration:  4384charge 0 multiplicity 1
 C        -3.269743         0.118937         2.826257
 C        -2.380008         0.093465         1.631592
 C        -3.033266        -0.343683         0.288101
 C        -1.995650        -1.199521         0.918748
 C        -0.681651        -1.283851         0.215920
 C        -0.211463         0.088249        -0.336787
 O         0.409494         0.081416        -1.408057
 O        -0.775419         1.209514         0.127337
 C        -1.396375         1.235280         1.477141
 H        -4.323138         0.490954         2.746074
 H        -3.553991        -0.808846         3.382541
 H        -2.976007         0.675271         3.716163
 H        -4.034098        -0.656555         0.292532
 H        -2.849136         0.340826        -0.528574
 H        -2.147181        -2.168871         1.363299
 H         0.030221        -1.674339         1.045028
 H        -0.753203        -2.011337        -0.599708
 H        -0.739061         1.480591         2.338353
 H        -1.938629         2.206458         1.368474
