19
Iteration:  2400
 C        -3.060560         0.076246         3.000583
 C        -2.419118         0.112850         1.546059
 C        -3.123416        -0.656858         0.427528
 C        -1.886082        -1.206196         1.095041
 C        -0.589137        -1.233083         0.356557
 C        -0.243001         0.065441        -0.412514
 O         0.646913         0.138425        -1.228255
 O        -0.913363         1.292630        -0.053283
 C        -1.787781         1.403031         1.032279
 H        -4.126638         0.454680         3.005438
 H        -3.216504        -1.007521         3.262552
 H        -2.337924         0.555105         3.727888
 H        -4.188818        -1.108229         0.629208
 H        -3.057777        -0.204159        -0.617977
 H        -1.993156        -1.981505         1.848098
 H         0.166622        -1.433030         1.077273
 H        -0.514557        -1.974406        -0.424656
 H        -1.262540         2.128003         1.771438
 H        -2.652481         1.977947         0.565245
