19
Iteration:  2455charge 0 multiplicity 1
 C        -3.264507         0.325829         2.793918
 C        -2.497428         0.008710         1.508716
 C        -3.054812        -0.883878         0.493072
 C        -1.824932        -1.328406         1.187468
 C        -0.607281        -1.135448         0.308489
 C        -0.302684         0.124358        -0.420046
 O         0.458603         0.223676        -1.341439
 O        -0.773826         1.312971         0.018731
 C        -1.547585         1.292842         1.221453
 H        -3.798378         1.271088         2.503762
 H        -3.896119        -0.546900         3.010090
 H        -2.533664         0.570450         3.592760
 H        -4.060437        -1.259057         0.804882
 H        -3.071223        -0.543786        -0.619296
 H        -1.918075        -2.275801         1.692629
 H         0.182163        -1.220246         1.026717
 H        -0.436482        -1.919100        -0.403298
 H        -0.795949         1.315840         2.104454
 H        -2.198979         2.214143         1.218857
