19
Iteration:  2561charge 0 multiplicity 1
 C        -3.210938         0.059032         2.778838
 C        -2.531286         0.084783         1.432170
 C        -2.988780        -0.634440         0.187382
 C        -1.831339        -1.218925         1.067601
 C        -0.429246        -1.084144         0.646743
 C        -0.349026         0.091566        -0.317893
 O         0.134002        -0.055331        -1.415368
 O        -0.736924         1.395111         0.067329
 C        -1.446038         1.402912         1.269718
 H        -4.143755         0.553496         2.977938
 H        -3.527988        -0.937879         3.147464
 H        -2.447092         0.322026         3.568083
 H        -3.935910        -1.174441         0.297890
 H        -2.971256        -0.181347        -0.919944
 H        -2.199839        -2.115209         1.565051
 H         0.320605        -0.926133         1.523724
 H        -0.077367        -1.973411         0.036522
 H        -0.699594         1.316697         2.076908
 H        -2.002878         2.311368         1.399760
