19
Iteration:  2589charge 0 multiplicity 1
 C        -3.220873         0.168023         2.736844
 C        -2.486932         0.108675         1.431800
 C        -3.026375        -0.777761         0.283992
 C        -1.869587        -1.163289         1.229245
 C        -0.492775        -1.064815         0.533388
 C        -0.249520         0.110664        -0.404284
 O         0.263815         0.110622        -1.504996
 O        -0.793896         1.280221         0.113434
 C        -1.484887         1.245239         1.302614
 H        -4.046585         0.939892         2.898576
 H        -3.898515        -0.683637         2.806438
 H        -2.719428         0.169646         3.674416
 H        -4.099165        -0.972099         0.346833
 H        -2.840169        -0.587967        -0.681109
 H        -2.004598        -1.956584         2.005641
 H         0.251274        -0.939852         1.264932
 H        -0.285319        -1.965170        -0.022593
 H        -0.693636         1.004048         2.041902
 H        -1.977352         2.258716         1.444849
