19
Iteration:  1853charge 0 multiplicity 1
 C        -3.114528         0.083026         2.905352
 C        -2.564859         0.150101         1.507937
 C        -3.222304        -0.738093         0.412569
 C        -1.886062        -1.151686         1.111585
 C        -0.476458        -1.128404         0.457140
 C        -0.206454         0.078373        -0.397358
 O         0.561928         0.095903        -1.329332
 O        -0.832619         1.327817        -0.102861
 C        -1.691147         1.315966         1.141600
 H        -3.849859         0.873679         3.142933
 H        -3.588836        -0.923129         3.072829
 H        -2.318251         0.212746         3.696534
 H        -4.200034        -1.182608         0.785549
 H        -3.089849        -0.351778        -0.574523
 H        -1.978430        -2.074146         1.711025
 H         0.262185        -1.188880         1.286758
 H        -0.359304        -2.021294        -0.125402
 H        -1.106475         1.331244         2.078321
 H        -2.259417         2.277267         1.050194
