19
Iteration:  2697charge 0 multiplicity 1
 C        -2.989947         0.077570         2.935855
 C        -2.527767         0.029635         1.472882
 C        -3.340122        -0.675422         0.466933
 C        -1.976772        -1.213381         1.026268
 C        -0.559244        -1.068406         0.446860
 C        -0.156350         0.179502        -0.371396
 O         0.682840         0.071667        -1.211160
 O        -0.892503         1.354632        -0.127371
 C        -1.703701         1.280759         1.050757
 H        -3.995939         0.605466         3.112117
 H        -3.103080        -0.994272         3.139868
 H        -2.077719         0.300036         3.519090
 H        -4.154692        -1.306631         0.820257
 H        -3.323541        -0.109990        -0.423897
 H        -2.153220        -2.065996         1.734010
 H         0.228011        -1.127369         1.319223
 H        -0.388157        -1.982173        -0.116377
 H        -0.940162         1.423019         1.790768
 H        -2.451135         2.158464         1.061158
