19
Iteration:  3371
 C        -3.286639         0.199160         2.908535
 C        -2.458491         0.040746         1.634302
 C        -2.954996        -0.374962         0.310593
 C        -2.028935        -1.250400         0.956949
 C        -0.569736        -1.266975         0.354044
 C        -0.213511         0.039091        -0.432826
 O         0.357125         0.157527        -1.541678
 O        -0.702978         1.183614         0.241584
 C        -1.543250         1.246319         1.340247
 H        -3.168247        -0.620051         3.584094
 H        -2.904458         1.070361         3.499745
 H        -4.365574         0.182572         2.614182
 H        -3.986165        -0.597754         0.251757
 H        -2.511589         0.079603        -0.610896
 H        -2.320145        -2.227581         1.283526
 H         0.155307        -1.312869         1.123443
 H        -0.450210        -2.133681        -0.223540
 H        -0.885780         1.399206         2.163168
 H        -2.124488         2.141748         1.140044
