19
Iteration:  3284charge 0 multiplicity 1
 C        -3.390439         0.183012         2.838056
 C        -2.436168         0.078229         1.657058
 C        -3.121687        -0.511916         0.338158
 C        -1.954066        -1.229493         0.971310
 C        -0.534214        -1.132372         0.368726
 C        -0.210221         0.130396        -0.470167
 O         0.433473         0.102603        -1.462627
 O        -0.756193         1.233327         0.067426
 C        -1.443863         1.173741         1.438281
 H        -4.444482         0.175038         2.651127
 H        -3.126101        -0.693291         3.462880
 H        -3.112028         1.028048         3.538609
 H        -4.111059        -1.054082         0.451362
 H        -2.976588        -0.096653        -0.630136
 H        -2.161495        -2.190458         1.464948
 H         0.257788        -1.079065         1.158391
 H        -0.333818        -1.977842        -0.253399
 H        -0.622927         1.094212         2.220179
 H        -1.879577         2.159848         1.442141
