19
Iteration:  4839
 C        -3.224622         0.145314         2.829646
 C        -2.522285         0.168883         1.470300
 C        -3.097642        -0.410978         0.215216
 C        -1.983482        -1.178716         0.879822
 C        -0.560697        -1.239577         0.428254
 C        -0.327151         0.068600        -0.357352
 O         0.258704         0.049601        -1.472960
 O        -0.639969         1.218618         0.210766
 C        -1.344432         1.222147         1.504182
 H        -3.641698         1.155647         2.942231
 H        -4.005272        -0.598138         2.775531
 H        -2.491830        -0.134271         3.583080
 H        -4.018665        -0.826581         0.512729
 H        -3.097653        -0.109571        -0.839800
 H        -2.337239        -1.955979         1.520618
 H         0.199176        -1.210635         1.270899
 H        -0.231530        -1.979959        -0.284780
 H        -0.593477         0.830414         2.234065
 H        -1.724402         2.267786         1.722127
