19
Iteration:   513
 C        -3.380088         0.202719         2.771023
 C        -2.439708         0.067329         1.532829
 C        -2.959709        -0.572663         0.176149
 C        -1.789029        -1.159947         0.918171
 C        -0.281316        -1.108067         0.597479
 C        -0.210516         0.061987        -0.349053
 O        -0.049235        -0.075661        -1.519061
 O        -0.638855         1.281892         0.231725
 C        -1.586851         1.283145         1.377264
 H        -4.358435         0.557457         2.262750
 H        -3.507132        -0.651681         3.436509
 H        -2.920886         0.939177         3.424224
 H        -3.885295        -1.143737         0.220120
 H        -2.658499         0.015001        -0.647453
 H        -2.150073        -2.095636         1.489479
 H         0.442098        -1.018464         1.443068
 H         0.118190        -1.933017         0.004087
 H        -0.988085         1.502482         2.285424
 H        -2.086597         2.265021         1.276564
