19
Iteration:  1026
 C        -2.551932         0.372346         2.977821
 C        -2.455359        -0.020971         1.540613
 C        -3.442677        -0.896548         0.778354
 C        -2.028082        -1.322150         0.933764
 C        -1.015913        -1.137825        -0.151271
 C        -0.084623         0.171901        -0.327873
 O         1.029185         0.210062        -0.731632
 O        -0.770519         1.354130         0.169819
 C        -2.101026         1.197430         0.562662
 H        -3.114280         1.311719         3.113442
 H        -3.133657        -0.309322         3.614286
 H        -1.549932         0.449332         3.360066
 H        -4.160093        -1.343564         1.375643
 H        -3.831406        -0.489795        -0.153278
 H        -1.887740        -2.106494         1.595770
 H        -0.191858        -1.927898        -0.248448
 H        -1.621868        -1.114959        -1.097232
 H        -2.583916         2.195043         0.898666
 H        -2.646048         0.979899        -0.322696
