19
Iteration:   444charge 0 multiplicity 1
 C        -3.331800         0.301082         2.903308
 C        -2.486075         0.057272         1.628397
 C        -3.105058        -0.567457         0.418471
 C        -1.874084        -1.230932         1.026041
 C        -0.487974        -1.189815         0.308409
 C        -0.221436         0.090820        -0.443804
 O         0.566038         0.140016        -1.363149
 O        -0.910631         1.190131        -0.001857
 C        -1.528771         1.200680         1.333426
 H        -4.062538        -0.483699         2.750395
 H        -2.913245         0.348838         3.882321
 H        -3.808269         1.199845         2.661125
 H        -4.012609        -1.168021         0.587194
 H        -2.981787         0.059637        -0.515039
 H        -2.075131        -2.163119         1.479916
 H         0.305265        -1.504243         0.891538
 H        -0.542789        -1.963231        -0.486146
 H        -0.756329         1.271509         2.047409
 H        -1.976500         2.216893         1.336942
