19
Iteration:  3251
 C        -3.162942         0.250848         2.825285
 C        -2.354397         0.042238         1.557370
 C        -2.962550        -0.496880         0.248552
 C        -1.933310        -1.209167         0.960117
 C        -0.561211        -1.259757         0.348514
 C        -0.305587         0.075251        -0.295231
 O         0.366973         0.205955        -1.287066
 O        -0.954836         1.159139         0.043742
 C        -1.522121         1.226687         1.360757
 H        -3.864503         1.022741         2.868270
 H        -3.655354        -0.721718         2.980858
 H        -2.503338         0.472786         3.722698
 H        -3.954278        -1.026720         0.114578
 H        -2.624519        -0.039744        -0.625445
 H        -2.279001        -2.139288         1.457397
 H         0.203183        -1.413698         1.170029
 H        -0.434710        -2.016086        -0.379135
 H        -0.647890         1.308608         2.099029
 H        -1.979428         2.199243         1.308313
