19
Iteration:  4881charge 0 multiplicity 1
 C        -3.436747         0.093336         2.815235
 C        -2.369253         0.129972         1.686352
 C        -2.949478        -0.228453         0.332898
 C        -1.949353        -1.228212         0.913016
 C        -0.526792        -1.250468         0.343387
 C        -0.315458        -0.017475        -0.454712
 O         0.300940         0.056472        -1.461677
 O        -0.704133         1.201249         0.083380
 C        -1.403390         1.243413         1.490958
 H        -4.071424         1.090304         2.995138
 H        -4.106716        -0.794961         2.923978
 H        -2.750263         0.040398         3.754086
 H        -3.988715        -0.490264         0.326737
 H        -2.675028         0.465062        -0.499204
 H        -2.360491        -2.176000         1.271382
 H         0.167327        -1.386679         1.190483
 H        -0.467263        -2.131549        -0.251237
 H        -0.667911         1.187511         2.270940
 H        -1.982890         2.201416         1.425726
