19
Iteration:  3372
 C        -3.290737         0.194991         2.906782
 C        -2.456019         0.037198         1.642742
 C        -2.969242        -0.376283         0.310719
 C        -2.028806        -1.242432         0.957627
 C        -0.566463        -1.261647         0.354324
 C        -0.208208         0.042327        -0.438974
 O         0.358748         0.157856        -1.541552
 O        -0.701410         1.181049         0.241574
 C        -1.541137         1.245202         1.337557
 H        -3.155516        -0.616062         3.595344
 H        -2.937165         1.071980         3.478794
 H        -4.379749         0.179986         2.623524
 H        -3.994555        -0.624844         0.246336
 H        -2.503356         0.073213        -0.624970
 H        -2.328631        -2.198892         1.318317
 H         0.134509        -1.317891         1.148276
 H        -0.451926        -2.141532        -0.238546
 H        -0.846523         1.379617         2.126541
 H        -2.088828         2.135475         1.162793
