19
Iteration:  4107
 C        -3.198774         0.154747         2.834733
 C        -2.548812         0.107281         1.501428
 C        -3.129198        -0.380447         0.204979
 C        -2.129433        -1.214410         0.922805
 C        -0.672362        -1.137679         0.417629
 C        -0.212149         0.032590        -0.413164
 O         0.346355         0.136230        -1.490265
 O        -0.576518         1.239815         0.258764
 C        -1.349563         1.086632         1.432490
 H        -4.268173        -0.089442         2.943719
 H        -2.804806        -0.429700         3.644231
 H        -3.213194         1.190777         3.298774
 H        -4.146610        -0.843373         0.385189
 H        -2.780047        -0.084796        -0.815409
 H        -2.261513        -2.189575         1.313163
 H        -0.018825        -1.212941         1.288246
 H        -0.459120        -2.020144        -0.201152
 H        -0.616965         0.823693         2.189909
 H        -1.627170         2.095484         1.727034
