19
Iteration:   624charge 0 multiplicity 1
 C        -3.376750         0.394838         2.861240
 C        -2.464514        -0.034490         1.639180
 C        -3.029573        -0.624411         0.419357
 C        -1.834353        -1.364694         1.113639
 C        -0.427558        -1.173526         0.468991
 C        -0.263739         0.096194        -0.498566
 O         0.505998         0.255089        -1.451637
 O        -0.947072         1.179697        -0.052891
 C        -1.546244         1.176935         1.280588
 H        -3.236986         1.503182         2.955084
 H        -4.402083         0.007140         2.685138
 H        -3.320969        -0.180918         3.823096
 H        -4.025480        -0.921261         0.361228
 H        -2.704137        -0.140442        -0.477068
 H        -1.963235        -2.257437         1.698420
 H         0.387140        -0.882474         1.208502
 H        -0.108335        -1.973224        -0.149658
 H        -0.814667         1.227138         2.136663
 H        -2.205549         2.045366         1.296014
