19
Iteration:  4657
 C        -3.097799         0.075122         2.964229
 C        -2.473270         0.156815         1.609000
 C        -3.153122        -0.380566         0.344486
 C        -2.008714        -1.174670         0.905698
 C        -0.689556        -1.271948         0.171557
 C        -0.184471         0.021918        -0.392455
 O         0.580467         0.074942        -1.270283
 O        -0.832575         1.192482         0.062085
 C        -1.532729         1.324511         1.343085
 H        -3.543272         0.912213         3.580507
 H        -4.016421        -0.576753         2.920940
 H        -2.443035        -0.410438         3.765583
 H        -4.212875        -0.469991         0.315800
 H        -2.936643         0.109932        -0.575971
 H        -2.493958        -1.985594         1.338131
 H         0.125320        -1.514415         0.825653
 H        -0.624067        -1.985769        -0.640277
 H        -0.865393         1.374904         2.166281
 H        -2.036841         2.289077         1.174529
