19
Iteration:  3932
 C        -3.284471         0.047579         2.977799
 C        -2.457059         0.158871         1.590353
 C        -3.293886        -0.300655         0.430239
 C        -2.098564        -1.109476         0.854309
 C        -0.739635        -1.182197         0.145061
 C        -0.126555         0.008823        -0.355235
 O         0.597307         0.005825        -1.338643
 O        -0.688808         1.187235         0.056141
 C        -1.331416         1.260136         1.379539
 H        -3.496990        -1.065144         3.058213
 H        -2.827255         0.275624         3.935507
 H        -4.234615         0.499971         2.686555
 H        -4.168336        -0.701891         0.861519
 H        -3.511031         0.323223        -0.470703
 H        -2.381312        -1.955951         1.455920
 H         0.042460        -1.493330         0.789849
 H        -0.666360        -1.942477        -0.649438
 H        -0.554831         1.121052         2.137530
 H        -1.511303         2.290778         1.334509
