19
Iteration:  1744
 C        -3.197186         0.169224         2.833591
 C        -2.408552         0.097755         1.480157
 C        -3.040703        -0.735265         0.273159
 C        -1.896979        -1.288521         1.091053
 C        -0.509964        -1.075829         0.589171
 C        -0.344128         0.142266        -0.363344
 O         0.253726         0.058259        -1.427407
 O        -0.690942         1.319773         0.044019
 C        -1.591519         1.321520         1.204489
 H        -3.902974         0.999678         2.826072
 H        -3.711912        -0.808992         2.928719
 H        -2.559803         0.126580         3.747249
 H        -3.926335        -1.383927         0.391611
 H        -2.787966        -0.538530        -0.746868
 H        -2.051613        -2.154326         1.714649
 H         0.220242        -0.742329         1.510058
 H         0.035974        -1.909060         0.160377
 H        -1.079001         1.565582         2.130137
 H        -2.140448         2.263064         1.051575
