19
Iteration:  3098
 C        -3.208039         0.138853         2.941848
 C        -2.490087         0.071875         1.587916
 C        -3.322159        -0.732142         0.531327
 C        -1.969640        -1.255004         1.011180
 C        -0.545865        -1.145676         0.347899
 C        -0.153186         0.168096        -0.449159
 O         0.709427         0.254688        -1.284539
 O        -0.949495         1.220115        -0.150723
 C        -1.520663         1.289166         1.184685
 H        -3.604441        -0.845591         3.005263
 H        -2.681724         0.308859         3.892727
 H        -4.035844         0.884331         2.747073
 H        -4.154385        -1.258045         0.883032
 H        -3.435773        -0.215432        -0.456076
 H        -1.918767        -2.067475         1.790467
 H         0.256715        -1.258644         1.211247
 H        -0.278294        -1.942908        -0.320464
 H        -0.629964         1.192205         1.931485
 H        -1.921989         2.228083         1.287150
