19
Iteration:  1312
 C        -3.304035         0.390591         2.844066
 C        -2.538076         0.087994         1.621484
 C        -3.108734        -0.744441         0.384895
 C        -1.792173        -1.222284         1.096008
 C        -0.376720        -1.216467         0.392946
 C        -0.116812         0.052811        -0.395965
 O         0.362330         0.152062        -1.500789
 O        -0.770293         1.156843         0.097471
 C        -1.721008         1.321003         1.256571
 H        -3.570681         1.512064         2.742479
 H        -4.239004        -0.212879         2.914598
 H        -2.791571         0.201551         3.821332
 H        -4.008557        -1.364687         0.564808
 H        -2.997374        -0.304541        -0.633143
 H        -1.821379        -2.030123         1.809597
 H         0.367422        -1.599659         1.003352
 H        -0.488271        -1.907607        -0.448981
 H        -0.900279         1.548065         2.050651
 H        -2.293528         2.219362         1.112174
