19
Iteration:   966charge 0 multiplicity 1
 C        -2.375284         0.368007         2.843282
 C        -2.542074         0.062990         1.265407
 C        -3.315128        -1.150397         1.072759
 C        -1.751373        -1.121326         0.854208
 C        -1.260018        -0.893260        -0.506552
 C        -0.224941         0.167273        -0.258083
 O         0.955857        -0.080073        -0.267044
 O        -0.739266         1.390036         0.230198
 C        -2.255678         1.243918         0.385890
 H        -2.684941         1.393548         3.206368
 H        -2.882283        -0.463393         3.411135
 H        -1.223423         0.351954         3.142701
 H        -3.862828        -1.590184         1.960572
 H        -3.914021        -1.184985         0.111078
 H        -1.034165        -1.519110         1.662639
 H        -0.634011        -1.622177        -1.001819
 H        -2.083252        -0.675917        -1.146093
 H        -2.587263         2.071470         0.949328
 H        -2.611903         1.188250        -0.661919
