19
Iteration:   841charge 0 multiplicity 1
 C        -2.363666         0.407701         2.904537
 C        -2.545446         0.055046         1.458664
 C        -3.442738        -0.961458         0.850984
 C        -1.935222        -1.243587         0.814366
 C        -0.991608        -1.163502        -0.381969
 C        -0.142326         0.136057        -0.192959
 O         0.994569         0.177992        -0.549051
 O        -0.803576         1.282915         0.243148
 C        -2.249799         1.282116         0.562613
 H        -3.007725         1.180315         3.322295
 H        -2.725323        -0.409094         3.495154
 H        -1.324723         0.562804         3.056522
 H        -3.920895        -1.592591         1.605683
 H        -3.942495        -0.777353        -0.038339
 H        -1.642034        -1.967943         1.558993
 H        -0.376655        -2.116978        -0.490889
 H        -1.518763        -0.936671        -1.378520
 H        -2.444619         2.382581         0.888594
 H        -2.848321         1.192534        -0.396398
