19
Iteration:  1654charge 0 multiplicity 1
 C        -3.288477         0.278014         2.748808
 C        -2.460284         0.039227         1.501526
 C        -3.114020        -0.811805         0.364685
 C        -1.809790        -1.201964         1.140035
 C        -0.486261        -1.042229         0.509627
 C        -0.308087         0.101153        -0.427068
 O         0.386424         0.085964        -1.401425
 O        -0.870448         1.326653        -0.030178
 C        -1.449391         1.220220         1.312723
 H        -4.001326         1.081682         2.587021
 H        -3.846782        -0.611689         3.081987
 H        -2.754155         0.513195         3.703524
 H        -4.106540        -1.145970         0.737847
 H        -3.318013        -0.656901        -0.716153
 H        -1.841742        -2.134936         1.679544
 H         0.360946        -0.877546         1.344461
 H        -0.099252        -1.903568        -0.106724
 H        -0.698186         0.961382         2.060660
 H        -1.722323         2.221483         1.605530
