19
Iteration:  4613charge 0 multiplicity 1
 C        -3.172660         0.162041         2.887603
 C        -2.491981         0.121358         1.565791
 C        -3.186414        -0.469264         0.420369
 C        -2.062270        -1.258589         0.958633
 C        -0.789641        -1.212059         0.174415
 C        -0.269712         0.131408        -0.433418
 O         0.632443         0.079876        -1.350437
 O        -0.690595         1.241804         0.103232
 C        -1.419430         1.242134         1.384367
 H        -4.022378         0.884532         3.097116
 H        -3.674151        -0.869057         2.922897
 H        -2.408165         0.176766         3.753869
 H        -4.236138        -0.745339         0.555806
 H        -3.244330        -0.190155        -0.594713
 H        -2.057806        -1.974972         1.743714
 H         0.011505        -1.467195         0.836913
 H        -0.661356        -1.861066        -0.679959
 H        -0.755552         1.218321         2.229984
 H        -2.069385         2.117084         1.479799
