19
Iteration:  3037charge 0 multiplicity 1
 C        -3.064758         0.162804         2.899405
 C        -2.494506         0.029014         1.436405
 C        -2.961072        -0.570628         0.248689
 C        -1.856975        -1.338778         1.024924
 C        -0.408731        -1.274809         0.560222
 C        -0.279479         0.149582        -0.348375
 O         0.373262         0.135851        -1.336252
 O        -0.932430         1.322585         0.025883
 C        -1.722529         1.331702         1.206040
 H        -4.216206         0.184160         3.043483
 H        -2.751082        -0.712447         3.493494
 H        -2.776835         1.040329         3.448793
 H        -3.860896        -1.094911         0.454909
 H        -2.965000        -0.136029        -0.818684
 H        -2.175018        -2.057751         1.757611
 H         0.316091        -1.319906         1.337439
 H        -0.238710        -2.106717        -0.171155
 H        -1.225847         1.798490         2.048768
 H        -2.469450         2.241477         0.924629
