19
Iteration:   516
 C        -3.384477         0.218888         2.753207
 C        -2.436154         0.040686         1.538052
 C        -2.980263        -0.568296         0.180550
 C        -1.789702        -1.148978         0.922122
 C        -0.244604        -1.123054         0.600470
 C        -0.195686         0.063806        -0.353026
 O        -0.069337        -0.084019        -1.525985
 O        -0.628967         1.283258         0.246686
 C        -1.614589         1.298753         1.380804
 H        -4.283873         0.538639         2.301755
 H        -3.544460        -0.774717         3.327443
 H        -2.843465         0.974392         3.452525
 H        -3.871587        -1.189310         0.168491
 H        -2.712803         0.097163        -0.599888
 H        -2.164821        -2.028758         1.416672
 H         0.523984        -1.038806         1.500587
 H         0.100982        -1.964541         0.005062
 H        -0.982151         1.578034         2.286500
 H        -2.075138         2.268483         1.228102
