19
Iteration:  4333
 C        -3.091805         0.146350         2.917728
 C        -2.511159         0.082001         1.520687
 C        -3.332270        -0.408283         0.274588
 C        -2.167116        -1.238044         0.885300
 C        -0.650654        -1.159667         0.295543
 C        -0.142278         0.102136        -0.408580
 O         0.619451         0.086830        -1.376007
 O        -0.721683         1.277317         0.147829
 C        -1.455139         1.161983         1.418901
 H        -4.216411         0.165232         3.029471
 H        -2.883492        -0.604157         3.692616
 H        -2.796761         0.987279         3.571957
 H        -4.276513        -0.948080         0.506686
 H        -3.380113        -0.020840        -0.816236
 H        -2.301333        -2.270552         1.173674
 H        -0.056134        -1.413647         1.123889
 H        -0.569715        -1.926673        -0.491882
 H        -0.753696         0.761157         2.266122
 H        -1.680618         2.249167         1.625746
