19
Iteration:  3140
 C        -3.049698         0.249517         2.976789
 C        -2.477483         0.079805         1.522661
 C        -3.047357        -0.709241         0.361959
 C        -1.883304        -1.282416         0.964392
 C        -0.573913        -1.350585         0.194493
 C        -0.271317         0.113925        -0.328698
 O         0.579304         0.177819        -1.200123
 O        -0.961318         1.288542         0.053182
 C        -1.695461         1.387117         1.214857
 H        -2.695341        -0.406608         3.719218
 H        -2.904508         1.323708         3.203017
 H        -4.118285         0.062362         2.989409
 H        -3.940651        -1.213724         0.182983
 H        -2.813044        -0.201572        -0.615645
 H        -2.145252        -1.985042         1.799601
 H         0.318172        -1.782200         0.783473
 H        -0.813276        -1.872635        -0.729968
 H        -1.117863         1.643910         2.126213
 H        -2.436816         2.151823         0.906974
