19
Iteration:  2751charge 0 multiplicity 1
 C        -3.015162         0.192645         3.001920
 C        -2.520342         0.043850         1.505965
 C        -3.140035        -0.636667         0.398335
 C        -1.838203        -1.252519         1.108949
 C        -0.570582        -1.241712         0.276576
 C        -0.198823         0.074094        -0.326282
 O         0.682807         0.268840        -1.130294
 O        -1.009395         1.165233        -0.185688
 C        -1.780729         1.359324         1.154585
 H        -3.591698         1.165837         2.963126
 H        -3.786273        -0.509323         3.289824
 H        -2.125184         0.194941         3.652678
 H        -4.122546        -1.055479         0.553554
 H        -3.034428        -0.306902        -0.664288
 H        -2.091154        -2.139513         1.747286
 H         0.385709        -1.753105         0.714677
 H        -0.882925        -1.828656        -0.582150
 H        -1.030635         1.617746         1.869005
 H        -2.488874         2.240525         0.959620
