19
Iteration:  1185
 C        -3.015891         0.326770         2.814261
 C        -2.478702         0.075085         1.392974
 C        -3.229879        -0.837824         0.515279
 C        -1.872421        -1.199520         1.112503
 C        -0.669943        -1.178907         0.267627
 C        -0.226214         0.094335        -0.308632
 O         0.497375         0.100817        -1.278900
 O        -0.613693         1.257184         0.232544
 C        -1.815931         1.370780         1.005872
 H        -3.466907         1.236204         3.051305
 H        -3.677929        -0.489620         3.044789
 H        -2.164991         0.152407         3.460131
 H        -4.094824        -1.318570         0.906323
 H        -3.323658        -0.570851        -0.565439
 H        -1.964391        -2.063640         1.738636
 H         0.263719        -1.528009         0.746391
 H        -0.694454        -1.875965        -0.619209
 H        -1.570903         1.895081         1.901874
 H        -2.490676         2.065475         0.373742
