19
Iteration:   839charge 0 multiplicity 1
 C        -2.384585         0.437771         2.903287
 C        -2.543860         0.047678         1.459795
 C        -3.435709        -0.972802         0.862212
 C        -1.929012        -1.232120         0.809081
 C        -1.005058        -1.167708        -0.391470
 C        -0.129524         0.127962        -0.202143
 O         0.987259         0.191805        -0.559973
 O        -0.790749         1.263856         0.259137
 C        -2.250392         1.268259         0.575159
 H        -3.018803         1.243300         3.197307
 H        -2.764195        -0.393147         3.476944
 H        -1.360163         0.524583         3.127959
 H        -3.930090        -1.587692         1.597682
 H        -3.991735        -0.760298        -0.088979
 H        -1.582786        -2.016426         1.596536
 H        -0.348927        -2.038935        -0.526231
 H        -1.524428        -0.894488        -1.378670
 H        -2.364145         2.327961         0.900349
 H        -2.866435         1.235738        -0.356487
