19
Iteration:  1603
 C        -3.303293         0.281421         2.791977
 C        -2.384080         0.070918         1.659672
 C        -2.994715        -0.628546         0.487577
 C        -1.832965        -1.241658         1.137686
 C        -0.533939        -1.278788         0.398569
 C        -0.253888         0.040298        -0.446636
 O         0.475167         0.229574        -1.381978
 O        -0.911047         1.189565        -0.026038
 C        -1.585117         1.286812         1.192308
 H        -4.181752         0.825220         2.400871
 H        -3.690612        -0.650223         3.305407
 H        -2.854592         0.928714         3.576652
 H        -3.894294        -1.252152         0.489796
 H        -2.769745        -0.122221        -0.516104
 H        -2.089106        -2.073718         1.772039
 H         0.310217        -1.369383         1.064581
 H        -0.448370        -2.074983        -0.302585
 H        -1.042864         1.786674         2.073827
 H        -2.467845         1.967173         0.894940
