19
Iteration:  4528charge 0 multiplicity 1
 C        -3.305126        -0.000612         2.814018
 C        -2.485118         0.155383         1.562641
 C        -3.082315        -0.364601         0.280677
 C        -1.964277        -1.141800         1.048887
 C        -0.641001        -1.162039         0.313665
 C        -0.224408         0.064986        -0.403654
 O         0.331814        -0.010358        -1.426596
 O        -0.709722         1.310722         0.112090
 C        -1.361204         1.217299         1.442657
 H        -3.993170         0.827915         2.911381
 H        -3.855999        -0.948994         2.760746
 H        -2.678823        -0.025646         3.709924
 H        -4.110363        -0.527580         0.690347
 H        -2.790969        -0.103481        -0.730991
 H        -2.310829        -2.079380         1.424333
 H         0.158172        -1.474274         1.080731
 H        -0.564343        -1.949224        -0.474042
 H        -0.456374         1.007293         2.143755
 H        -1.355784         2.285917         1.692472
