19
Iteration:  1553charge 0 multiplicity 1
 C        -2.998246         0.085668         2.989459
 C        -2.567934         0.165331         1.448131
 C        -3.159409        -0.779497         0.357199
 C        -1.979764        -1.183834         1.118393
 C        -0.630995        -1.061005         0.519190
 C        -0.194634         0.108157        -0.347179
 O         0.566939         0.054127        -1.345319
 O        -0.767174         1.270956        -0.062363
 C        -1.740533         1.388126         1.035674
 H        -3.693309         0.822666         3.475454
 H        -3.659529        -0.783755         2.916089
 H        -2.149345        -0.097599         3.648784
 H        -4.125447        -1.105953         0.599748
 H        -3.052464        -0.457861        -0.671663
 H        -2.189934        -1.964507         1.871148
 H         0.330187        -0.916484         1.245255
 H        -0.411634        -2.038122        -0.048167
 H        -1.116300         1.390613         1.932678
 H        -2.231647         2.315375         0.979824
