19
Iteration:   997charge 0 multiplicity 1
 C        -2.511682         0.469958         2.968451
 C        -2.541989         0.067288         1.447310
 C        -3.372885        -1.089753         0.952847
 C        -1.868290        -1.159593         0.795450
 C        -1.132883        -1.054105        -0.442725
 C        -0.179004         0.061366        -0.271147
 O         1.044519         0.190200        -0.476567
 O        -0.760089         1.217684         0.167308
 C        -2.144044         1.246336         0.523013
 H        -2.780842         1.519997         3.142135
 H        -3.183093        -0.120029         3.596955
 H        -1.556222         0.218521         3.441903
 H        -3.812737        -1.740232         1.752205
 H        -4.110034        -0.907829         0.125437
 H        -1.403658        -1.808443         1.579417
 H        -0.493921        -1.922901        -0.777822
 H        -1.789881        -0.799806        -1.311181
 H        -2.347256         2.200140         1.071606
 H        -2.804113         1.372786        -0.431438
