19
Iteration:    20
 C        -3.282557         0.170371         2.768373
 C        -2.383167         0.124486         1.541373
 C        -2.909061        -0.350243         0.176297
 C        -1.921944        -1.265297         0.928948
 C        -0.556156        -1.279017         0.336276
 C        -0.311460         0.021290        -0.373517
 O         0.291147        -0.071560        -1.410300
 O        -0.782921         1.339268         0.233683
 C        -1.494364         1.326084         1.561522
 H        -4.270591        -0.421913         2.655260
 H        -2.762374        -0.237814         3.573544
 H        -3.581651         1.152381         3.044146
 H        -3.985961        -0.731407         0.249557
 H        -2.649078         0.134135        -0.755144
 H        -2.388458        -2.095687         1.275569
 H         0.265317        -1.601173         1.032430
 H        -0.366351        -2.065823        -0.473362
 H        -0.780494         1.397602         2.352030
 H        -2.071092         2.250161         1.491244
