19
Iteration:   730
 C        -2.821085         0.329700         2.970204
 C        -2.455262         0.055944         1.551636
 C        -3.357256        -0.767173         0.583632
 C        -1.997176        -1.226447         0.946506
 C        -0.729833        -1.248934         0.049290
 C        -0.165621         0.092152        -0.313846
 O         0.831879         0.202842        -1.029781
 O        -0.741596         1.209900         0.126490
 C        -1.971432         1.337666         0.876048
 H        -3.887815         0.557999         3.131257
 H        -2.720398        -0.636067         3.447648
 H        -2.282174         1.127166         3.375706
 H        -4.122063        -1.301383         1.108874
 H        -3.669033        -0.306315        -0.386738
 H        -2.202161        -2.147838         1.644386
 H         0.067044        -1.896355         0.345641
 H        -0.866162        -1.645425        -1.032249
 H        -1.744441         2.108158         1.619611
 H        -2.788902         1.700876         0.139019
