19
Iteration:  4671
 C        -3.076942         0.095185         3.007358
 C        -2.483720         0.047176         1.573443
 C        -3.200758        -0.261040         0.294510
 C        -2.087347        -1.183311         0.920357
 C        -0.682781        -1.222417         0.260060
 C        -0.213160         0.026832        -0.438326
 O         0.670289         0.129375        -1.348984
 O        -0.834248         1.139443         0.106277
 C        -1.586883         1.235159         1.350207
 H        -3.153434         1.167807         3.066418
 H        -4.011168        -0.431361         3.173128
 H        -2.307661        -0.212560         3.690210
 H        -4.117275        -0.813291         0.319690
 H        -2.840969         0.377585        -0.547722
 H        -2.158049        -2.147023         1.412197
 H         0.006366        -1.526162         1.093085
 H        -0.694009        -2.094169        -0.427250
 H        -0.739640         1.409102         2.106303
 H        -2.143544         2.153158         1.270606
