19
Iteration:  2270
 C        -3.131426         0.072870         2.852493
 C        -2.519624         0.153463         1.507737
 C        -3.151412        -0.780345         0.462770
 C        -1.892411        -1.192359         1.175283
 C        -0.615774        -1.098481         0.424572
 C        -0.260053         0.134924        -0.446155
 O         0.624319         0.182448        -1.296396
 O        -0.895663         1.283991        -0.105943
 C        -1.601012         1.281222         1.153057
 H        -3.576111         1.050197         3.208749
 H        -3.918929        -0.669151         2.846868
 H        -2.600535        -0.217468         3.780088
 H        -4.142692        -1.344496         0.669548
 H        -2.901983        -0.475922        -0.586560
 H        -1.874014        -1.813924         2.059371
 H         0.226040        -1.408849         1.132633
 H        -0.641841        -1.948414        -0.279868
 H        -0.737573         1.298578         1.847765
 H        -2.192311         2.257121         1.079820
