19
Iteration:   905charge 0 multiplicity 1
 C        -2.115659         0.353485         2.911772
 C        -2.387168         0.063258         1.399295
 C        -3.545233        -0.855090         0.971475
 C        -2.037295        -1.223367         0.690542
 C        -1.032204        -1.066517        -0.496943
 C        -0.209612         0.093729        -0.182234
 O         1.049696         0.205520        -0.103256
 O        -0.922138         1.224276        -0.044341
 C        -2.275839         1.213811         0.515453
 H        -3.022510         0.547003         3.430694
 H        -1.580055        -0.499950         3.285885
 H        -1.426372         1.132433         3.121240
 H        -4.038300        -1.640585         1.611437
 H        -4.199242        -0.525492         0.229816
 H        -1.733819        -2.165524         1.222547
 H        -0.489072        -2.033373        -0.470069
 H        -1.571521        -0.985013        -1.490731
 H        -2.576561         2.196750         1.006825
 H        -2.915028         1.187572        -0.372261
