19
Iteration:  1677
 C        -3.275232         0.099464         2.773311
 C        -2.453251         0.074372         1.559729
 C        -3.025983        -0.617211         0.416125
 C        -1.907110        -1.276206         1.157190
 C        -0.481554        -1.097773         0.590528
 C        -0.208835         0.118350        -0.426863
 O         0.329619         0.066016        -1.508862
 O        -0.746580         1.282796        -0.075918
 C        -1.631461         1.345475         1.272500
 H        -3.865689         1.000401         2.876564
 H        -3.964819        -0.757565         2.873370
 H        -2.664821         0.004978         3.707867
 H        -3.929627        -1.190417         0.417153
 H        -2.889984        -0.397938        -0.678077
 H        -2.039302        -2.001560         1.921816
 H         0.098744        -0.855554         1.618960
 H         0.088304        -1.927196         0.136279
 H        -0.928522         1.539607         2.069073
 H        -2.196405         2.284232         1.176049
