19
Iteration:  3730
 C        -3.291215         0.288810         2.812980
 C        -2.465665         0.206099         1.475658
 C        -3.189753        -0.439686         0.292151
 C        -2.072168        -1.256190         0.831677
 C        -0.680762        -1.255781         0.242630
 C        -0.217341         0.027435        -0.331441
 O         0.295653         0.077843        -1.446010
 O        -0.579454         1.254869         0.275647
 C        -1.231803         1.083710         1.507465
 H        -3.446393        -0.689340         3.239868
 H        -2.627361         0.875780         3.528376
 H        -4.270309         0.794612         2.638141
 H        -4.243688        -0.646296         0.532650
 H        -3.049801         0.230321        -0.596409
 H        -2.380074        -2.039334         1.463026
 H         0.004457        -1.367836         1.075959
 H        -0.527639        -2.025969        -0.472778
 H        -0.485434         0.625322         2.162858
 H        -1.410084         2.102860         2.063057
