19
Iteration:  4411charge 0 multiplicity 1
 C        -3.393386         0.070435         2.812774
 C        -2.468664         0.161192         1.634144
 C        -3.120652        -0.361282         0.375590
 C        -1.983048        -1.187910         1.000905
 C        -0.579881        -1.262821         0.310018
 C        -0.273830         0.111167        -0.499774
 O         0.407593         0.084324        -1.486363
 O        -0.605088         1.244492         0.146770
 C        -1.363327         1.195603         1.433845
 H        -4.241015         0.764348         2.968057
 H        -3.919562        -0.895205         2.862384
 H        -2.946848         0.145847         3.846228
 H        -4.166851        -0.819437         0.462838
 H        -2.926262         0.195902        -0.560261
 H        -2.202827        -2.136617         1.543323
 H         0.196311        -1.436281         1.011243
 H        -0.592756        -2.126105        -0.397156
 H        -0.726029         1.188831         2.374283
 H        -1.874354         2.182862         1.393307
