19
Iteration:   454
 C        -3.391104         0.259907         2.785646
 C        -2.472507         0.127995         1.586086
 C        -3.052283        -0.603760         0.424652
 C        -1.884506        -1.236244         1.077769
 C        -0.479028        -1.137260         0.348961
 C        -0.239543         0.096102        -0.396686
 O         0.468071         0.125187        -1.370260
 O        -0.916050         1.186086        -0.015869
 C        -1.393616         1.207837         1.349718
 H        -4.266894        -0.337951         2.871774
 H        -2.822519        -0.090545         3.654763
 H        -3.738820         1.296823         2.926585
 H        -4.022044        -1.134588         0.572697
 H        -3.103243        -0.151250        -0.620920
 H        -2.112108        -2.164892         1.490298
 H         0.344441        -1.288514         0.943151
 H        -0.442726        -1.844327        -0.491512
 H        -0.628940         1.007132         2.065323
 H        -1.851059         2.191445         1.536154
