19
Iteration:  3472charge 0 multiplicity 1
 C        -3.255735         0.158768         2.966930
 C        -2.441569         0.078840         1.595704
 C        -3.193107        -0.264237         0.346473
 C        -2.011260        -1.112773         0.897842
 C        -0.583346        -1.319100         0.207968
 C        -0.127441        -0.001054        -0.411460
 O         0.512651         0.119248        -1.414835
 O        -0.751017         1.075480         0.197340
 C        -1.534674         1.283650         1.370579
 H        -2.858208         1.106699         3.337037
 H        -4.353667         0.052046         2.909246
 H        -2.922051        -0.489948         3.821044
 H        -4.146772        -0.888721         0.624432
 H        -3.079102         0.359586        -0.514085
 H        -2.390375        -2.130573         1.139912
 H         0.110380        -1.783713         0.811842
 H        -0.670510        -1.813069        -0.782092
 H        -0.858972         1.428141         2.192579
 H        -2.007038         2.187819         1.139975
