19
Iteration:  2439
 C        -3.242518         0.353263         2.855569
 C        -2.444812         0.036382         1.603568
 C        -3.181106        -0.770174         0.451427
 C        -1.854032        -1.245940         1.100122
 C        -0.479793        -1.213308         0.306047
 C        -0.182621         0.140690        -0.480074
 O         0.586593         0.216637        -1.449318
 O        -0.848153         1.209901         0.086814
 C        -1.732072         1.257950         1.257256
 H        -3.967763         1.129186         2.722532
 H        -3.752713        -0.497964         3.316823
 H        -2.682264         0.690294         3.725509
 H        -4.005604        -1.403009         0.747743
 H        -3.061987        -0.510018        -0.539464
 H        -1.870288        -2.012278         1.908131
 H         0.472276        -1.482670         0.921117
 H        -0.597890        -2.074957        -0.440253
 H        -1.234423         1.630104         2.113669
 H        -2.467090         2.040476         1.077379
