19
Iteration:   150
 C        -3.461309         0.181267         2.874968
 C        -2.527313         0.107624         1.636606
 C        -3.137905        -0.402005         0.351549
 C        -1.988012        -1.179370         0.938426
 C        -0.529637        -1.258991         0.310378
 C        -0.199329         0.070542        -0.443073
 O         0.427705         0.042582        -1.490345
 O        -0.627105         1.267619         0.142231
 C        -1.379070         1.186261         1.431558
 H        -3.647354        -1.004094         3.116881
 H        -3.007814         0.660276         3.755123
 H        -4.430102         0.659027         2.627375
 H        -4.064752        -0.939619         0.226359
 H        -2.957623         0.345655        -0.485041
 H        -2.293556        -1.971959         1.485620
 H         0.195355        -1.300602         1.116042
 H        -0.471468        -2.087660        -0.449819
 H        -0.555562         1.004351         2.238895
 H        -1.662959         2.245182         1.615913
