19
Iteration:  4086
 C        -3.146686         0.261455         2.786367
 C        -2.400344         0.082955         1.469296
 C        -3.072093        -0.384428         0.141698
 C        -2.056255        -1.270712         0.860439
 C        -0.630707        -1.366917         0.369631
 C        -0.388429         0.075579        -0.360968
 O         0.304609         0.121798        -1.349597
 O        -0.721657         1.282168         0.209793
 C        -1.307346         1.159026         1.526278
 H        -4.244062         0.096526         2.730717
 H        -2.922379        -0.528261         3.546917
 H        -3.116923         1.096641         3.510701
 H        -4.195918        -0.611707         0.175693
 H        -2.622640         0.247443        -0.671600
 H        -2.406633        -2.063804         1.500773
 H         0.054924        -1.388850         1.178603
 H        -0.278773        -2.046042        -0.390124
 H        -0.538338         0.972181         2.354800
 H        -1.800378         2.116054         1.670536
