19
Iteration:  3393charge 0 multiplicity 1
 C        -3.326236         0.125344         2.863966
 C        -2.506428         0.126981         1.515417
 C        -3.201989        -0.452852         0.319618
 C        -1.956252        -1.145523         0.973524
 C        -0.560333        -1.196899         0.360601
 C        -0.230017         0.022216        -0.417914
 O         0.379015         0.113802        -1.453617
 O        -0.659306         1.234254         0.098917
 C        -1.349175         1.193846         1.487513
 H        -2.940690        -0.475843         3.659429
 H        -3.360049         1.157073         3.305064
 H        -4.283879        -0.364129         2.547086
 H        -4.117452        -0.920702         0.580481
 H        -3.239530         0.166005        -0.636746
 H        -2.108332        -2.102853         1.410512
 H         0.270384        -1.264554         1.006661
 H        -0.481449        -2.026350        -0.281395
 H        -0.686452         1.041059         2.312338
 H        -1.762395         2.183810         1.420898
