19
Iteration:  4090
 C        -3.179499         0.250013         2.819756
 C        -2.419016         0.090522         1.453842
 C        -3.090383        -0.409729         0.143761
 C        -2.058550        -1.287365         0.875813
 C        -0.640140        -1.354299         0.371020
 C        -0.371160         0.109303        -0.376476
 O         0.311252         0.129085        -1.364954
 O        -0.684795         1.268454         0.194989
 C        -1.301794         1.166391         1.542905
 H        -4.260000         0.092185         2.709919
 H        -2.734391        -0.566283         3.546884
 H        -3.035538         1.155693         3.470893
 H        -4.126149        -0.518393         0.130051
 H        -2.754323         0.214216        -0.691615
 H        -2.600036        -2.068244         1.521388
 H         0.087708        -1.245892         1.229003
 H        -0.226987        -2.119545        -0.294317
 H        -0.603303         0.811540         2.374504
 H        -1.809416         2.143039         1.637678
