19
Iteration:  2848charge 0 multiplicity 1
 C        -3.098991         0.200766         2.952028
 C        -2.456686         0.096260         1.569770
 C        -3.004433        -0.581555         0.336806
 C        -1.817541        -1.299553         1.056035
 C        -0.450907        -1.281017         0.323952
 C        -0.307412         0.045478        -0.371398
 O         0.488648         0.162439        -1.246090
 O        -0.893360         1.263394        -0.024064
 C        -1.857103         1.360663         1.170864
 H        -4.088964         0.543052         2.919281
 H        -3.204056        -0.863330         3.108255
 H        -2.458703         0.766199         3.684665
 H        -3.942207        -1.038827         0.318894
 H        -2.829026        -0.142049        -0.712553
 H        -2.054848        -2.223160         1.688679
 H         0.273972        -1.206149         1.146024
 H        -0.209957        -2.038790        -0.357974
 H        -1.296676         1.771483         2.046550
 H        -2.561155         2.164283         0.911074
