19
Iteration:  3096charge 0 multiplicity 1
 C        -3.205668         0.141015         2.942418
 C        -2.498283         0.061981         1.592397
 C        -3.327588        -0.721667         0.527193
 C        -1.965368        -1.260202         1.017283
 C        -0.512665        -1.155014         0.342087
 C        -0.139794         0.156363        -0.446816
 O         0.703488         0.247848        -1.284134
 O        -0.960202         1.234407        -0.160847
 C        -1.530579         1.302627         1.196268
 H        -3.661643        -0.808810         2.889993
 H        -2.673148         0.257879         3.902738
 H        -3.997882         0.871776         2.797569
 H        -4.244370        -1.236070         0.874950
 H        -3.420679        -0.221321        -0.409156
 H        -1.922552        -2.042435         1.803636
 H         0.281453        -1.209668         1.192195
 H        -0.270730        -2.007606        -0.321004
 H        -0.681733         1.100941         1.902707
 H        -1.902782         2.322367         1.312230
