19
Iteration:  3282charge 0 multiplicity 1
 C        -3.383831         0.186678         2.826186
 C        -2.423701         0.070151         1.646198
 C        -3.125388        -0.499779         0.340483
 C        -1.954628        -1.226516         0.971737
 C        -0.497319        -1.153080         0.378792
 C        -0.216880         0.127200        -0.463117
 O         0.436316         0.100416        -1.461554
 O        -0.786627         1.247417         0.073045
 C        -1.444916         1.168871         1.447877
 H        -4.489729         0.261542         2.726800
 H        -3.150233        -0.725555         3.487084
 H        -3.070429         1.036466         3.512347
 H        -4.119610        -1.015770         0.426955
 H        -2.934240        -0.117483        -0.614868
 H        -2.219841        -2.225311         1.437395
 H         0.271300        -1.173305         1.127106
 H        -0.371772        -1.952625        -0.317484
 H        -0.630054         1.115534         2.168640
 H        -1.881937         2.188676         1.365672
