19
Iteration:  2854charge 0 multiplicity 1
 C        -3.107674         0.107190         2.965038
 C        -2.380735         0.077399         1.561115
 C        -3.001129        -0.633456         0.292214
 C        -1.840634        -1.255155         1.045615
 C        -0.505534        -1.218259         0.407629
 C        -0.296322         0.057145        -0.369211
 O         0.479076         0.124711        -1.284485
 O        -0.881319         1.292232        -0.031823
 C        -1.829492         1.424748         1.156686
 H        -4.132198         0.627489         2.927316
 H        -3.174973        -0.983151         3.231285
 H        -2.562518         0.672772         3.725975
 H        -4.073126        -1.020946         0.356684
 H        -2.780577        -0.223365        -0.673307
 H        -2.163565        -2.033958         1.676054
 H         0.146394        -1.267730         1.311189
 H        -0.221324        -2.079077        -0.301930
 H        -1.223266         1.771004         2.021318
 H        -2.601643         2.189514         0.960351
