19
Iteration:   891
 C        -2.058745         0.201765         2.955273
 C        -2.437666         0.053768         1.442988
 C        -3.540339        -0.845621         0.912082
 C        -2.114751        -1.239974         0.730428
 C        -1.058930        -1.156843        -0.356620
 C        -0.142375         0.165772        -0.133577
 O         1.043572         0.201378        -0.181198
 O        -0.906063         1.351570        -0.080821
 C        -2.286771         1.213735         0.371343
 H        -3.007111         0.292539         3.544833
 H        -1.688011        -0.747557         3.433922
 H        -1.404138         1.150820         3.078164
 H        -4.065674        -1.361076         1.718689
 H        -4.127291        -0.349089         0.051256
 H        -1.839981        -1.965409         1.600547
 H        -0.327994        -1.912830        -0.444426
 H        -1.410212        -0.949779        -1.329620
 H        -2.386928         2.167058         0.801298
 H        -3.017349         1.159136        -0.404246
