19
Iteration:  2493charge 0 multiplicity 1
 C        -3.328152         0.161624         2.694446
 C        -2.462902         0.136905         1.486922
 C        -2.944223        -0.714636         0.340811
 C        -1.806978        -1.187235         1.208968
 C        -0.479893        -1.075032         0.516041
 C        -0.232243         0.114640        -0.418512
 O         0.283120         0.051389        -1.514330
 O        -0.920753         1.279810         0.048280
 C        -1.466198         1.269597         1.388950
 H        -3.932733         1.062366         2.850668
 H        -4.108355        -0.586503         2.865311
 H        -2.679834         0.124998         3.587467
 H        -3.951397        -1.130015         0.504564
 H        -2.811296        -0.402304        -0.618675
 H        -1.875492        -2.127624         1.807976
 H         0.393576        -1.062921         1.234048
 H        -0.351146        -2.005175        -0.105939
 H        -0.691862         1.117832         2.137890
 H        -1.912778         2.280214         1.459349
