19
Iteration:  3000charge 0 multiplicity 1
 C        -3.395791         0.083986         2.915366
 C        -2.516274         0.147501         1.505084
 C        -3.065707        -0.819336         0.395680
 C        -1.832057        -1.250746         1.063775
 C        -0.442345        -1.037200         0.518733
 C        -0.216230         0.137687        -0.484429
 O         0.344772         0.110068        -1.543388
 O        -0.658801         1.308155         0.089314
 C        -1.615651         1.335753         1.253053
 H        -4.218224         0.738651         2.783094
 H        -3.681661        -0.951080         3.185614
 H        -2.746626         0.478356         3.777291
 H        -4.005353        -1.378308         0.683533
 H        -3.111753        -0.526936        -0.609210
 H        -1.996188        -2.136505         1.784362
 H         0.231774        -0.823538         1.343160
 H         0.029085        -1.850042         0.028970
 H        -0.982401         1.502281         2.144647
 H        -2.245560         2.126161         1.011244
