19
Iteration:  2938
 C        -3.328086         0.275533         2.728456
 C        -2.396359        -0.035927         1.517231
 C        -2.839228        -0.675136         0.296106
 C        -1.737704        -1.299156         1.165098
 C        -0.310381        -1.261281         0.550298
 C        -0.363880         0.093421        -0.379913
 O         0.254578         0.171745        -1.416778
 O        -1.053165         1.346032        -0.005965
 C        -1.531956         1.268460         1.316660
 H        -3.516124         1.386700         2.767378
 H        -4.366139         0.006081         2.632702
 H        -2.995670         0.036260         3.729068
 H        -3.770995        -1.302056         0.250920
 H        -2.542459        -0.105982        -0.534317
 H        -2.044117        -2.158322         1.796008
 H         0.476387        -1.098758         1.329002
 H        -0.059289        -1.989020        -0.239757
 H        -0.782983         1.429485         2.106434
 H        -2.303122         2.155730         1.480070
