19
Iteration:  3653charge 0 multiplicity 1
 C        -3.178934         0.200550         2.917115
 C        -2.430238         0.098127         1.642856
 C        -3.234602        -0.264455         0.271777
 C        -2.107568        -1.135959         0.744390
 C        -0.650756        -1.271245         0.253036
 C        -0.159538         0.005605        -0.341820
 O         0.348445         0.089730        -1.474132
 O        -0.546016         1.093807         0.271890
 C        -1.425847         1.169868         1.444496
 H        -3.472048        -0.747834         3.344850
 H        -2.452460         0.559504         3.709959
 H        -4.023763         0.899815         2.760250
 H        -4.361018        -0.546046         0.197278
 H        -2.956249         0.366465        -0.557514
 H        -2.459671        -2.054691         1.186560
 H        -0.148044        -1.454704         1.230562
 H        -0.616282        -2.102782        -0.419480
 H        -0.810024         1.408582         2.293739
 H        -2.043492         2.135033         1.194284
