19
Iteration:  2686charge 0 multiplicity 1
 C        -2.992375         0.023175         2.853069
 C        -2.552619         0.137127         1.445508
 C        -3.229069        -0.781652         0.427454
 C        -1.935553        -1.192635         1.103507
 C        -0.671707        -1.023050         0.451767
 C        -0.196363         0.187619        -0.341104
 O         0.641072         0.050775        -1.228199
 O        -0.895347         1.334029        -0.136381
 C        -1.628344         1.322856         1.126744
 H        -3.855957         0.686446         3.205302
 H        -3.271477        -1.007791         3.109913
 H        -2.288638         0.382695         3.600689
 H        -4.146240        -1.277967         0.783907
 H        -3.334246        -0.514303        -0.590526
 H        -1.972338        -2.110789         1.739465
 H         0.153775        -1.223329         1.228190
 H        -0.488355        -1.763835        -0.325661
 H        -0.961080         1.262926         1.968915
 H        -2.057392         2.372274         1.187317
