19
Iteration:  3420
 C        -3.153367         0.123132         2.824735
 C        -2.454096         0.118853         1.453950
 C        -3.198087        -0.489386         0.262337
 C        -2.084185        -1.214263         0.976803
 C        -0.721175        -1.146269         0.343592
 C        -0.256287         0.130108        -0.375187
 O         0.417993         0.044054        -1.365379
 O        -0.724379         1.333316         0.092577
 C        -1.305354         1.131945         1.487596
 H        -2.512457         0.272550         3.741895
 H        -3.921539         0.901980         2.831435
 H        -3.594243        -0.848780         2.887143
 H        -4.285846        -0.815896         0.343331
 H        -2.870693        -0.093912        -0.659789
 H        -2.134770        -1.981390         1.789993
 H         0.058774        -1.248405         1.169864
 H        -0.428296        -1.962307        -0.415961
 H        -0.501367         0.756955         2.164539
 H        -1.603283         2.173753         1.707863
