19
Iteration:  4177
 C        -3.249387         0.123419         2.907864
 C        -2.400842         0.100507         1.501460
 C        -3.038833        -0.243752         0.232876
 C        -2.020620        -1.222052         0.926999
 C        -0.736103        -1.308277         0.190354
 C        -0.315842         0.027722        -0.376632
 O         0.442962         0.102750        -1.322406
 O        -0.695567         1.247607         0.219276
 C        -1.425854         1.185280         1.451491
 H        -3.196270        -0.851295         3.392402
 H        -2.498116         0.677583         3.545353
 H        -4.275275         0.565233         2.846400
 H        -4.041344        -0.557095         0.126030
 H        -2.564137         0.095095        -0.638016
 H        -2.368374        -2.179137         1.411732
 H         0.022056        -1.841395         0.693344
 H        -1.017142        -1.921149        -0.646822
 H        -0.693511         1.289912         2.302619
 H        -1.837367         2.201578         1.495248
