19
Iteration:  2707charge 0 multiplicity 1
 C        -2.967630         0.078327         2.982596
 C        -2.528308         0.046352         1.562050
 C        -3.343443        -0.610390         0.460226
 C        -1.980036        -1.232585         0.935140
 C        -0.486753        -1.146136         0.421862
 C        -0.198263         0.118110        -0.385559
 O         0.721177         0.128706        -1.208035
 O        -0.887095         1.300749        -0.153059
 C        -1.768333         1.281318         1.088430
 H        -3.864082         0.778878         3.122235
 H        -3.286610        -0.883033         3.400475
 H        -2.188917         0.550816         3.654115
 H        -4.301869        -1.148517         0.679282
 H        -3.478163        -0.212318        -0.519440
 H        -2.095283        -2.114884         1.602996
 H         0.128761        -1.045562         1.411079
 H        -0.047154        -1.933361        -0.185930
 H        -1.203372         1.669992         1.930277
 H        -2.492546         2.085254         0.783307
