19
Iteration:  3170charge 0 multiplicity 1
 C        -3.061386         0.103953         2.883203
 C        -2.490169         0.067395         1.527527
 C        -3.165194        -0.586732         0.413136
 C        -1.937819        -1.229857         1.064109
 C        -0.604274        -1.196893         0.320877
 C        -0.226923         0.114490        -0.411544
 O         0.585503         0.174909        -1.285932
 O        -0.808090         1.242085         0.092663
 C        -1.692826         1.294070         1.145579
 H        -2.203598         0.135697         3.657466
 H        -3.684582         1.029553         3.049699
 H        -3.738731        -0.745361         2.947007
 H        -4.174444        -1.004643         0.493162
 H        -2.925677        -0.158954        -0.558515
 H        -2.109182        -1.979149         1.826240
 H         0.251882        -1.469644         0.870767
 H        -0.693019        -2.009576        -0.448726
 H        -1.300950         1.693632         2.066826
 H        -2.473612         2.078998         0.762608
