19
Iteration:  3748charge 0 multiplicity 1
 C        -3.249279         0.354586         2.847497
 C        -2.460927        -0.022964         1.607224
 C        -3.178375        -0.282638         0.263607
 C        -2.083771        -1.204751         0.807715
 C        -0.600238        -1.221828         0.340817
 C        -0.259261         0.038685        -0.412682
 O         0.355750         0.101710        -1.502158
 O        -0.594751         1.165078         0.237060
 C        -1.295081         1.076088         1.534192
 H        -3.854473        -0.449055         3.338204
 H        -2.636649         0.650811         3.696087
 H        -4.037667         1.049694         2.553531
 H        -4.223146        -0.737744         0.405482
 H        -3.153228         0.087768        -0.734552
 H        -2.536498        -2.207163         1.039953
 H         0.010417        -1.364246         1.256060
 H        -0.446325        -1.987357        -0.437794
 H        -0.655031         0.923931         2.452365
 H        -1.874338         1.953493         1.695374
