19
Iteration:  4929charge 0 multiplicity 1
 C        -3.115481         0.216024         2.811218
 C        -2.500003         0.161366         1.481958
 C        -3.216158        -0.537273         0.262537
 C        -2.084447        -1.304347         0.987621
 C        -0.703438        -1.240433         0.302504
 C        -0.292214         0.081093        -0.372044
 O         0.404766         0.124204        -1.395659
 O        -0.594188         1.349768         0.227393
 C        -1.355197         1.171007         1.369174
 H        -3.845266         1.031026         2.915229
 H        -3.730799        -0.662910         3.057086
 H        -2.428931         0.328495         3.645692
 H        -4.170969        -1.085211         0.340554
 H        -3.063749        -0.044139        -0.684278
 H        -2.441005        -2.199206         1.506145
 H        -0.034362        -1.308308         1.222715
 H        -0.506083        -2.181870        -0.296643
 H        -0.654473         0.755383         2.200473
 H        -1.649963         2.259154         1.553301
