19
Iteration:  2713charge 0 multiplicity 1
 C        -2.964910         0.101328         3.032891
 C        -2.513246         0.052866         1.562839
 C        -3.309192        -0.596942         0.438974
 C        -1.961486        -1.253713         0.883626
 C        -0.506980        -1.159901         0.412193
 C        -0.191303         0.087217        -0.404156
 O         0.726307         0.175903        -1.201606
 O        -0.900742         1.201259        -0.137799
 C        -1.814409         1.335874         1.108511
 H        -3.671803         0.910344         3.143093
 H        -3.340175        -0.824664         3.492825
 H        -2.382385         0.644489         3.779507
 H        -4.236332        -1.126638         0.813618
 H        -3.346978        -0.144198        -0.588204
 H        -2.087700        -2.180773         1.407373
 H         0.030946        -1.060194         1.298740
 H         0.014485        -1.947591        -0.173822
 H        -1.333613         1.853199         1.997525
 H        -2.474431         2.075248         0.719345
