19
Iteration:  3876
 C        -3.043992         0.299361         2.926564
 C        -2.476954         0.040970         1.592403
 C        -3.163245        -0.288913         0.235982
 C        -2.070229        -1.209415         0.843175
 C        -0.723413        -1.337078         0.181266
 C        -0.202161        -0.015039        -0.326845
 O         0.516076         0.148923        -1.316384
 O        -0.785426         1.142383         0.182661
 C        -1.468921         1.194824         1.443860
 H        -3.891835        -0.410076         3.121352
 H        -2.239846         0.434487         3.637621
 H        -3.405862         1.342487         2.881977
 H        -4.117891        -0.828136         0.239130
 H        -2.902214         0.219495        -0.692224
 H        -2.596747        -2.137822         1.272143
 H         0.042216        -1.825435         0.753004
 H        -0.923490        -1.974768        -0.730251
 H        -0.776942         1.089417         2.302397
 H        -1.850624         2.246517         1.490053
