19
Iteration:   653charge 0 multiplicity 1
 C        -3.118803         0.169152         2.912027
 C        -2.464582         0.109354         1.518991
 C        -3.105623        -0.627095         0.362742
 C        -1.863614        -1.180690         0.999723
 C        -0.493353        -1.155092         0.496772
 C        -0.254609         0.117782        -0.383248
 O         0.638305         0.154390        -1.198674
 O        -1.154761         1.142738        -0.195726
 C        -1.551683         1.306827         1.206571
 H        -3.388048         1.222372         3.321975
 H        -4.144819        -0.273721         2.926907
 H        -2.537430        -0.367913         3.658716
 H        -4.065189        -1.141902         0.717411
 H        -3.072545        -0.248824        -0.663916
 H        -2.113619        -2.063805         1.744265
 H         0.310723        -1.370015         1.162546
 H        -0.421408        -1.961019        -0.326507
 H        -0.775888         1.284860         1.959237
 H        -2.067508         2.322021         1.324549
