19
Iteration:  3255
 C        -3.160470         0.246170         2.822149
 C        -2.356762         0.053315         1.570753
 C        -2.973855        -0.466141         0.239003
 C        -1.889537        -1.244400         0.964017
 C        -0.572251        -1.283912         0.346662
 C        -0.268610         0.066193        -0.254657
 O         0.357744         0.196561        -1.313106
 O        -0.963565         1.184488         0.032329
 C        -1.546503         1.216219         1.380072
 H        -4.027101         0.974274         2.729998
 H        -3.598945        -0.694113         3.088458
 H        -2.614552         0.615832         3.674805
 H        -3.923753        -0.976535         0.142512
 H        -2.717839         0.156620        -0.664164
 H        -2.164279        -2.123963         1.488427
 H         0.228352        -1.344060         1.148402
 H        -0.441931        -2.091411        -0.442044
 H        -0.665962         1.149061         2.051774
 H        -1.935456         2.224957         1.346560
