19
Iteration:  2738
 C        -2.994813         0.224835         2.987142
 C        -2.479607         0.070388         1.625672
 C        -3.163457        -0.551526         0.375795
 C        -1.893266        -1.162074         1.014992
 C        -0.525019        -1.310804         0.288759
 C        -0.168983         0.069075        -0.368388
 O         0.697301         0.293983        -1.167627
 O        -1.040619         1.096783        -0.075884
 C        -1.836929         1.250526         1.070583
 H        -3.516017         1.115764         3.187341
 H        -3.520162        -0.667785         3.321052
 H        -2.180249         0.383543         3.733055
 H        -4.102338        -1.254252         0.373546
 H        -3.004836         0.070899        -0.498706
 H        -2.121668        -2.057551         1.604741
 H         0.256594        -1.604442         1.021452
 H        -0.450944        -2.026108        -0.508550
 H        -1.293094         1.800397         1.869316
 H        -2.591206         1.940508         0.745106
