19
Iteration:  2977
 C        -3.430603         0.124646         2.708420
 C        -2.472776         0.064479         1.532497
 C        -3.044848        -0.747814         0.413175
 C        -1.702008        -1.184890         1.287037
 C        -0.429982        -1.112931         0.474336
 C        -0.245979         0.144908        -0.441483
 O         0.282007         0.155596        -1.530390
 O        -0.764971         1.313462         0.050253
 C        -1.569690         1.259854         1.294402
 H        -3.836111         1.129607         2.687471
 H        -4.228238        -0.643232         2.674953
 H        -2.874672        -0.074976         3.680646
 H        -3.975824        -1.367791         0.407248
 H        -2.784610        -0.382428        -0.556662
 H        -1.822651        -1.971923         2.082454
 H         0.467816        -1.082167         1.112095
 H        -0.260062        -2.040737        -0.075849
 H        -0.843360         1.282856         2.132111
 H        -2.129870         2.111462         1.196973
