19
Iteration:  2785charge 0 multiplicity 1
 C        -3.167407         0.145523         2.802007
 C        -2.463416         0.056701         1.516185
 C        -3.272435        -0.871656         0.602783
 C        -1.802283        -1.229673         1.154799
 C        -0.693550        -1.100561         0.191123
 C        -0.325322         0.158202        -0.489799
 O         0.755007         0.190994        -1.072278
 O        -0.920327         1.355371        -0.199012
 C        -1.585780         1.285657         1.188398
 H        -3.589376         1.196644         2.850962
 H        -3.903413        -0.652090         2.967217
 H        -2.622130         0.180323         3.746881
 H        -4.040905        -1.235438         1.174453
 H        -3.504883        -0.828024        -0.484924
 H        -1.586805        -1.994073         1.949345
 H         0.366047        -1.264455         0.685692
 H        -0.719424        -1.935722        -0.532771
 H        -0.750486         1.187503         1.848482
 H        -2.041362         2.318877         1.430246
