19
Iteration:    16charge 0 multiplicity 1
 C        -3.272893         0.185859         2.765165
 C        -2.408652         0.143365         1.540260
 C        -2.950919        -0.360987         0.192808
 C        -1.932878        -1.257217         0.914486
 C        -0.559685        -1.294284         0.334383
 C        -0.323429         0.046202        -0.371134
 O         0.347104        -0.062521        -1.411889
 O        -0.795495         1.329952         0.232833
 C        -1.470380         1.297667         1.551814
 H        -4.133995        -0.469743         2.675866
 H        -2.606965        -0.257334         3.630851
 H        -3.709951         1.192291         3.112293
 H        -3.946010        -0.754011         0.304717
 H        -2.734618         0.128716        -0.770775
 H        -2.456235        -2.249263         1.295719
 H         0.276527        -1.599298         0.979586
 H        -0.414678        -2.060230        -0.431025
 H        -0.709583         1.496351         2.409155
 H        -2.127398         2.203295         1.414529
