19
Iteration:  1678charge 0 multiplicity 1
 C        -3.272412         0.092730         2.779097
 C        -2.451440         0.072703         1.567395
 C        -3.020439        -0.614726         0.403882
 C        -1.896781        -1.265126         1.153982
 C        -0.485829        -1.101734         0.592739
 C        -0.205394         0.106075        -0.422987
 O         0.327293         0.064385        -1.512043
 O        -0.747071         1.282147        -0.075783
 C        -1.643509         1.354431         1.273560
 H        -3.855373         1.005088         2.882817
 H        -3.978899        -0.756327         2.877731
 H        -2.668902         0.001741         3.713933
 H        -3.930109        -1.176034         0.410311
 H        -2.891685        -0.391587        -0.681813
 H        -2.042639        -2.009596         1.900669
 H         0.103683        -0.855462         1.619757
 H         0.067692        -1.921852         0.139566
 H        -0.942078         1.548097         2.095164
 H        -2.199940         2.316372         1.147905
