19
Iteration:    80
 C        -3.393279         0.226385         2.628937
 C        -2.475262         0.103297         1.411054
 C        -3.054814        -0.577828         0.193121
 C        -1.932167        -1.154584         0.949203
 C        -0.471814        -1.053412         0.474392
 C        -0.256942         0.112184        -0.372076
 O        -0.065705         0.010163        -1.540585
 O        -0.423599         1.253578         0.388564
 C        -1.295001         1.095707         1.532370
 H        -4.292871        -0.193622         2.356163
 H        -2.990690        -0.302696         3.567590
 H        -3.613538         1.294841         2.922246
 H        -4.023446        -1.067675         0.143085
 H        -2.750376        -0.040699        -0.679015
 H        -2.064969        -2.029930         1.768095
 H         0.069100        -0.965484         1.423285
 H        -0.171311        -1.837534        -0.172163
 H        -0.825758         0.840391         2.482969
 H        -1.720980         2.097267         1.699589
