19
Iteration:  4540
 C        -3.263575         0.072888         2.830226
 C        -2.400392         0.150485         1.538337
 C        -3.081218        -0.394129         0.325468
 C        -2.021731        -1.193892         0.972159
 C        -0.677733        -1.216771         0.329153
 C        -0.326875         0.115022        -0.405821
 O         0.385310         0.014982        -1.402344
 O        -0.723114         1.310581         0.122312
 C        -1.304510         1.212171         1.449861
 H        -4.075617         0.773219         2.753394
 H        -3.701806        -0.905407         2.945953
 H        -2.660022         0.278284         3.681132
 H        -4.050798        -0.868908         0.082380
 H        -2.832373         0.155996        -0.618708
 H        -2.228325        -2.066880         1.602498
 H         0.200950        -1.428336         1.035431
 H        -0.674198        -1.987842        -0.479040
 H        -0.564371         0.843379         2.199411
 H        -1.858520         2.091236         1.691450
