19
Iteration:  3654
 C        -3.189032         0.200158         2.916804
 C        -2.426031         0.092546         1.652173
 C        -3.239263        -0.262184         0.267912
 C        -2.105808        -1.132509         0.750601
 C        -0.639246        -1.274875         0.245636
 C        -0.155852        -0.000422        -0.343396
 O         0.343659         0.087685        -1.473603
 O        -0.548728         1.096155         0.275262
 C        -1.426063         1.171639         1.441487
 H        -3.464502        -0.729736         3.357524
 H        -2.449564         0.568005         3.691748
 H        -4.030236         0.886612         2.713855
 H        -4.358460        -0.536019         0.235398
 H        -2.948474         0.416712        -0.537023
 H        -2.432957        -2.063527         1.155371
 H        -0.151540        -1.468439         1.250524
 H        -0.623517        -2.095990        -0.457604
 H        -0.822529         1.434495         2.289805
 H        -2.015955         2.143374         1.186496
