19
Iteration:  4099
 C        -3.219476         0.180698         2.882470
 C        -2.488309         0.123654         1.468178
 C        -3.090728        -0.400732         0.180177
 C        -2.117481        -1.285143         0.928047
 C        -0.646425        -1.222797         0.386286
 C        -0.278929         0.076147        -0.397110
 O         0.335499         0.142485        -1.442508
 O        -0.608520         1.254964         0.222056
 C        -1.348917         1.132262         1.481800
 H        -4.300622         0.016641         2.789065
 H        -2.616676        -0.581301         3.489562
 H        -2.944500         1.231440         3.042551
 H        -4.160320        -0.634299         0.231707
 H        -2.893280        -0.027621        -0.872523
 H        -2.594562        -2.229214         1.346701
 H        -0.010383        -1.162141         1.248691
 H        -0.408784        -2.127145        -0.103549
 H        -0.591213         0.774482         2.298365
 H        -1.591903         2.171155         1.782809
