19
Iteration:  3545charge 0 multiplicity 1
 C        -3.096381         0.233231         2.976025
 C        -2.507849         0.086673         1.561306
 C        -3.268853        -0.293648         0.295830
 C        -2.128311        -1.224908         0.837007
 C        -0.708096        -1.324851         0.191378
 C        -0.174788         0.023670        -0.374423
 O         0.575912         0.137474        -1.314236
 O        -0.729892         1.174455         0.123613
 C        -1.439968         1.177353         1.412304
 H        -4.067729         0.686805         2.880301
 H        -3.158817        -0.715635         3.569135
 H        -2.548103         0.977176         3.590754
 H        -4.229837        -0.880506         0.428821
 H        -3.104036         0.217071        -0.619897
 H        -2.216441        -2.122536         1.396436
 H         0.120382        -1.740878         0.909300
 H        -0.744649        -1.951406        -0.700639
 H        -0.617411         1.185474         2.193128
 H        -1.838648         2.258894         1.495050
