19
Iteration:   400charge 0 multiplicity 1
 C        -2.960762         0.171310         2.979097
 C        -2.465819         0.129057         1.447272
 C        -3.285494        -0.632892         0.380215
 C        -1.972604        -1.187165         0.973003
 C        -0.687450        -1.281750         0.219870
 C        -0.208323         0.069439        -0.311175
 O         0.655945         0.128927        -1.097596
 O        -0.785753         1.267455         0.037955
 C        -1.742567         1.348503         1.067568
 H        -2.523026        -0.703321         3.471692
 H        -2.510602         0.996192         3.509555
 H        -3.994779         0.174234         3.029740
 H        -4.212605        -1.212932         0.687508
 H        -3.231386        -0.216383        -0.649581
 H        -2.052912        -1.971916         1.664658
 H         0.071661        -1.637136         0.850746
 H        -0.722312        -1.987455        -0.640498
 H        -1.221812         1.639431         1.938723
 H        -2.405839         2.220314         0.911586
