19
Iteration:  3686
 C        -3.344251         0.183463         2.827767
 C        -2.406731         0.168787         1.659289
 C        -3.047779        -0.258867         0.322825
 C        -2.065484        -1.196653         0.913355
 C        -0.714701        -1.342122         0.155425
 C        -0.302466         0.015983        -0.422612
 O         0.328563         0.063713        -1.463996
 O        -0.524717         1.175054         0.259014
 C        -1.356130         1.213973         1.524502
 H        -3.296367        -0.833643         3.166500
 H        -2.941776         0.899287         3.612155
 H        -4.385646         0.436126         2.555833
 H        -4.140579        -0.610993         0.351220
 H        -2.576946         0.173419        -0.556117
 H        -2.293453        -2.150215         1.335728
 H        -0.021214        -1.697274         0.939504
 H        -0.707008        -2.056658        -0.649392
 H        -0.680041         1.356120         2.351402
 H        -1.725985         2.284095         1.296816
