19
Iteration:  2585charge 0 multiplicity 1
 C        -3.200723         0.138482         2.744629
 C        -2.489362         0.172171         1.422974
 C        -3.020528        -0.806626         0.281281
 C        -1.888536        -1.176803         1.213296
 C        -0.531638        -1.088253         0.572154
 C        -0.231791         0.134003        -0.394148
 O         0.236925         0.101766        -1.501520
 O        -0.777452         1.304503         0.078030
 C        -1.483082         1.255185         1.314312
 H        -4.051238         0.778632         2.826731
 H        -3.835462        -0.752714         2.856811
 H        -2.607642         0.136822         3.686362
 H        -4.114794        -0.974184         0.265340
 H        -2.672381        -0.623105        -0.828100
 H        -2.076240        -1.873227         1.994382
 H         0.283105        -0.934909         1.384984
 H        -0.261183        -1.984993         0.014043
 H        -0.743254         1.006127         2.081303
 H        -1.893256         2.226730         1.517463
