19
Iteration:  2067charge 0 multiplicity 1
 C        -3.194449        -0.075066         2.828345
 C        -2.516895         0.119074         1.521056
 C        -3.029786        -0.593229         0.396186
 C        -1.859121        -1.225691         1.123765
 C        -0.451472        -0.992358         0.621392
 C        -0.339197         0.104449        -0.483096
 O         0.421480        -0.037937        -1.460609
 O        -0.766217         1.321047        -0.018398
 C        -1.675445         1.381160         1.187273
 H        -3.475080         0.974663         3.158590
 H        -4.061972        -0.801576         2.818405
 H        -2.429879        -0.431500         3.564904
 H        -3.975369        -1.006604         0.668211
 H        -2.933173        -0.128006        -0.619692
 H        -2.084588        -1.996624         1.803632
 H         0.026660        -0.707199         1.598518
 H         0.073680        -1.897380         0.146349
 H        -1.220902         1.692491         2.146608
 H        -2.369622         2.187255         0.913343
