19
Iteration:  1288
 C        -3.292392         0.360183         2.832875
 C        -2.418303         0.065740         1.636486
 C        -2.999259        -0.671361         0.365878
 C        -1.839881        -1.285655         1.113090
 C        -0.512591        -1.145446         0.410833
 C        -0.341327         0.037813        -0.464325
 O         0.501977         0.118201        -1.349200
 O        -0.950279         1.250431        -0.080361
 C        -1.550355         1.206531         1.294352
 H        -3.885409         1.295878         2.679054
 H        -3.947561        -0.505899         3.039422
 H        -2.717771         0.441257         3.762885
 H        -3.988991        -0.924286         0.650702
 H        -2.895086        -0.181118        -0.644057
 H        -2.038842        -2.272173         1.555437
 H         0.185859        -0.961048         1.191714
 H        -0.137666        -1.974539        -0.111609
 H        -0.575311         1.301066         1.895076
 H        -2.143230         2.102641         1.463703
