19
Iteration:  3069
 C        -3.132523         0.115170         2.943649
 C        -2.499822         0.065234         1.569418
 C        -3.066170        -0.616746         0.322731
 C        -1.869985        -1.187529         1.057601
 C        -0.543149        -1.103161         0.439586
 C        -0.269516         0.144358        -0.414819
 O         0.613832         0.162645        -1.283217
 O        -1.035890         1.175719        -0.085920
 C        -1.601770         1.273033         1.218250
 H        -4.130331        -0.407844         2.787928
 H        -2.514746        -0.443439         3.658980
 H        -3.284313         1.151233         3.273657
 H        -3.919099        -1.227912         0.548251
 H        -3.091933        -0.109490        -0.695065
 H        -1.977501        -2.035331         1.716810
 H         0.270840        -1.182922         1.096450
 H        -0.443393        -1.922911        -0.288637
 H        -0.836174         1.364678         1.981288
 H        -2.290413         2.155806         1.072389
