19
Iteration:  2513
 C        -3.384069         0.171302         2.887556
 C        -2.471922         0.091202         1.624233
 C        -2.926830        -0.514557         0.270541
 C        -1.785492        -1.172291         1.071323
 C        -0.248962        -1.122425         0.569303
 C        -0.309585        -0.004732        -0.422793
 O         0.189147         0.110236        -1.512032
 O        -0.812932         1.162884         0.022751
 C        -1.558292         1.269880         1.263819
 H        -4.189193         0.972694         2.765523
 H        -4.124776        -0.655742         2.878997
 H        -3.095456         0.199270         3.929491
 H        -3.856792        -1.049225         0.176855
 H        -2.695114        -0.012080        -0.576679
 H        -2.113514        -2.151366         1.512088
 H         0.337738        -0.875639         1.427469
 H         0.143906        -2.029672         0.132612
 H        -0.818305         1.393450         2.112059
 H        -2.151909         2.251934         1.180603
