19
Iteration:  2729
 C        -2.997239         0.225564         3.040422
 C        -2.450457         0.048073         1.638159
 C        -3.151675        -0.576119         0.400719
 C        -1.942939        -1.210732         0.888730
 C        -0.545090        -1.232065         0.312170
 C        -0.153803         0.039263        -0.375271
 O         0.732040         0.273618        -1.203639
 O        -1.029477         1.077536        -0.018805
 C        -1.843901         1.328147         1.043802
 H        -3.785677         1.053753         3.233049
 H        -3.453788        -0.720078         3.336077
 H        -2.052208         0.366948         3.633024
 H        -4.101126        -1.187429         0.415329
 H        -3.318779         0.041078        -0.470492
 H        -2.145570        -2.144320         1.479569
 H         0.188382        -1.238211         1.255087
 H        -0.395389        -2.146639        -0.261755
 H        -1.216715         1.893489         1.712220
 H        -2.696921         2.033265         0.727889
