19
Iteration:  2995
 C        -3.411704         0.091974         2.891083
 C        -2.537332         0.109055         1.509405
 C        -3.037823        -0.812360         0.427788
 C        -1.854764        -1.238233         1.132441
 C        -0.412593        -1.058857         0.549168
 C        -0.250904         0.114319        -0.501239
 O         0.360434         0.130651        -1.579388
 O        -0.638872         1.333884         0.071998
 C        -1.626131         1.328453         1.256841
 H        -4.227986         0.885530         2.816808
 H        -3.721442        -0.952800         2.997262
 H        -2.806231         0.327589         3.730306
 H        -3.935309        -1.300695         0.714447
 H        -3.141951        -0.549041        -0.677138
 H        -1.987198        -2.159370         1.620280
 H         0.363916        -0.845324         1.356395
 H        -0.025245        -1.937600        -0.098864
 H        -0.991091         1.411515         2.148809
 H        -2.256934         2.318314         1.200238
