19
Iteration:  1751charge 0 multiplicity 1
 C        -3.205500         0.167627         2.795229
 C        -2.485182         0.049718         1.450463
 C        -3.037559        -0.766369         0.359390
 C        -1.874311        -1.298173         1.108265
 C        -0.507517        -0.996272         0.544150
 C        -0.331183         0.095220        -0.389531
 O         0.266760         0.065285        -1.405365
 O        -0.666493         1.340023         0.031059
 C        -1.566282         1.326572         1.234961
 H        -3.940012         0.979662         2.788768
 H        -3.852140        -0.711862         2.942747
 H        -2.571141         0.340032         3.697608
 H        -4.032638        -1.186893         0.470991
 H        -2.870832        -0.520611        -0.748512
 H        -1.954056        -2.231244         1.661117
 H         0.057538        -0.678348         1.358925
 H        -0.064023        -1.935712         0.146930
 H        -0.861148         1.316695         2.105052
 H        -2.189899         2.242597         1.209534
