19
Iteration:   532
 C        -3.358048         0.163589         2.683115
 C        -2.471416         0.092196         1.484820
 C        -2.951291        -0.462801         0.234944
 C        -1.702245        -1.198508         1.010722
 C        -0.191803        -1.138590         0.611316
 C        -0.214341         0.027033        -0.337777
 O        -0.162933        -0.047084        -1.512497
 O        -0.564061         1.249510         0.286383
 C        -1.632037         1.338900         1.287752
 H        -4.151849         0.966428         2.480542
 H        -3.815115        -0.756625         2.978028
 H        -2.899739         0.378770         3.618943
 H        -3.805432        -1.178823         0.318443
 H        -2.961840         0.202601        -0.725928
 H        -1.948326        -2.243039         1.333132
 H         0.325022        -1.061831         1.489968
 H         0.092205        -2.101221         0.103521
 H        -1.295399         1.647682         2.260895
 H        -2.418553         2.079245         0.948970
