19
Iteration:  4352charge 0 multiplicity 1
 C        -3.094456         0.196377         2.926646
 C        -2.532923         0.086169         1.477217
 C        -3.210438        -0.439001         0.219774
 C        -2.043574        -1.218255         0.866472
 C        -0.734577        -1.252375         0.271170
 C        -0.277207         0.060559        -0.362117
 O         0.497424         0.193827        -1.280746
 O        -0.711419         1.223212         0.146438
 C        -1.392859         1.114241         1.415972
 H        -4.239614         0.350239         2.901597
 H        -2.871635        -0.763836         3.583044
 H        -2.592160         1.020372         3.522843
 H        -4.214332        -0.751711         0.291185
 H        -2.992376         0.170952        -0.665887
 H        -2.318163        -2.079971         1.458713
 H         0.011263        -1.285579         1.149483
 H        -0.515301        -2.088974        -0.390245
 H        -0.481812         1.041515         2.052709
 H        -1.693844         2.179805         1.349503
