19
Iteration:   371charge 0 multiplicity 1
 C        -2.861081         0.066471         3.051049
 C        -2.558578         0.172241         1.426449
 C        -3.422058        -0.679305         0.496615
 C        -2.094262        -1.209718         0.968225
 C        -0.774813        -1.104948         0.141414
 C        -0.164490         0.122745        -0.358235
 O         0.889031         0.006764        -1.029082
 O        -0.739940         1.296660        -0.008443
 C        -1.829107         1.419385         1.014757
 H        -1.807423        -0.390300         3.225991
 H        -3.148724         0.976101         3.610561
 H        -3.571126        -0.806757         3.146481
 H        -4.235962        -1.229058         0.884970
 H        -3.395205        -0.290479        -0.536730
 H        -2.055994        -2.059313         1.672294
 H         0.041940        -1.707956         0.705629
 H        -0.876922        -1.795416        -0.734101
 H        -1.230638         1.754211         1.946686
 H        -2.406184         2.295421         0.686928
