19
Iteration:  3262
 C        -3.207549         0.223933         2.830518
 C        -2.433984         0.055004         1.569244
 C        -2.996740        -0.419905         0.239322
 C        -1.858307        -1.282233         0.981951
 C        -0.528519        -1.297204         0.354934
 C        -0.208665         0.068728        -0.310785
 O         0.359925         0.161230        -1.342401
 O        -0.967062         1.230835         0.046581
 C        -1.509542         1.234197         1.372578
 H        -4.044378         0.741702         2.458230
 H        -3.564443        -0.689249         3.339467
 H        -2.643714         0.818527         3.612753
 H        -4.051311        -0.854060         0.331019
 H        -2.870580         0.229508        -0.566984
 H        -2.124424        -2.196969         1.545422
 H         0.294587        -1.487234         1.101817
 H        -0.414698        -2.025473        -0.405837
 H        -0.678713         1.081778         2.141622
 H        -2.037034         2.155962         1.606319
