19
Iteration:  4312charge 0 multiplicity 1
 C        -3.193983         0.049953         2.883083
 C        -2.455910         0.095240         1.576407
 C        -3.309020        -0.351695         0.422125
 C        -2.103936        -1.138362         0.849870
 C        -0.645887        -1.207823         0.203135
 C        -0.224613         0.067036        -0.404644
 O         0.616653         0.081880        -1.280415
 O        -0.668420         1.245999         0.073275
 C        -1.442643         1.178894         1.336054
 H        -4.249610        -0.172345         3.024393
 H        -2.751453        -0.633507         3.602147
 H        -3.065967         0.963883         3.486657
 H        -4.320038        -0.805078         0.500306
 H        -3.264723         0.364006        -0.486096
 H        -2.249624        -2.039393         1.448903
 H        -0.003999        -1.397712         1.037643
 H        -0.533075        -1.993468        -0.568856
 H        -0.914380         1.095876         2.286784
 H        -2.058280         2.091682         1.470651
