19
Iteration:  2149
 C        -3.482121         0.235073         2.670105
 C        -2.430666         0.017379         1.582806
 C        -2.950859        -0.753682         0.420942
 C        -1.806723        -1.317709         1.209107
 C        -0.458403        -1.100234         0.495183
 C        -0.234039         0.013941        -0.462935
 O         0.215186         0.166042        -1.549795
 O        -0.795584         1.383434         0.019422
 C        -1.411828         1.315022         1.392051
 H        -4.360612         0.785481         2.350307
 H        -3.841421        -0.735079         3.055304
 H        -3.108837         0.745837         3.587875
 H        -3.891733        -1.267119         0.514380
 H        -2.784032        -0.464649        -0.635684
 H        -1.870954        -2.278689         1.746661
 H         0.315871        -0.895538         1.397337
 H        -0.043859        -2.004116         0.116945
 H        -0.664219         1.161805         2.207984
 H        -1.935985         2.286180         1.334512
