19
Iteration:  1227
 C        -3.130270         0.152318         2.961710
 C        -2.544913         0.076258         1.628146
 C        -3.140409        -0.515014         0.376900
 C        -1.957756        -1.158111         1.084510
 C        -0.531457        -1.146130         0.392796
 C        -0.170310         0.041626        -0.410237
 O         0.618958         0.064823        -1.369624
 O        -0.868311         1.159684        -0.020804
 C        -1.697140         1.317133         1.123006
 H        -4.072845         0.702220         3.034375
 H        -3.345261        -0.820513         3.377802
 H        -2.379780         0.718718         3.522757
 H        -4.096767        -1.020922         0.422955
 H        -3.046212         0.166179        -0.528231
 H        -2.069985        -2.116965         1.547110
 H         0.226666        -1.061054         1.276703
 H        -0.309753        -2.151575        -0.139803
 H        -1.110999         1.790276         1.866229
 H        -2.497630         2.016669         0.866841
