19
Iteration:  1935charge 0 multiplicity 1
 C        -3.130680         0.192462         2.970224
 C        -2.472907         0.086631         1.501210
 C        -3.043463        -0.651719         0.434844
 C        -1.874531        -1.211769         1.137706
 C        -0.576796        -1.265672         0.247542
 C        -0.302605         0.063095        -0.444978
 O         0.665388         0.207017        -1.168758
 O        -0.987748         1.224572        -0.112484
 C        -1.691936         1.347548         1.151950
 H        -3.813191         1.067515         3.065653
 H        -3.841965        -0.612220         3.208682
 H        -2.378476         0.216034         3.765409
 H        -3.992893        -1.209102         0.640946
 H        -3.068972        -0.342961        -0.577936
 H        -1.891704        -1.878734         1.968561
 H         0.393144        -1.517427         0.887786
 H        -0.616224        -2.152367        -0.491924
 H        -0.990594         1.592050         1.955314
 H        -2.288190         2.245789         0.977799
