19
Iteration:  4415charge 0 multiplicity 1
 C        -3.385931         0.070726         2.813799
 C        -2.485045         0.168332         1.633187
 C        -3.134610        -0.385806         0.344910
 C        -1.980763        -1.201577         1.026946
 C        -0.615625        -1.235759         0.306001
 C        -0.254885         0.103805        -0.502000
 O         0.401435         0.097600        -1.500621
 O        -0.602783         1.231619         0.149663
 C        -1.349679         1.215211         1.460971
 H        -4.092336         0.896998         2.898773
 H        -3.862800        -0.901489         2.629272
 H        -2.771733         0.097264         3.721058
 H        -4.079052        -0.779980         0.507696
 H        -2.960000         0.225522        -0.509574
 H        -2.132110        -2.135902         1.598303
 H         0.117990        -1.442004         1.152622
 H        -0.522352        -2.151152        -0.274959
 H        -0.804624         1.039336         2.393577
 H        -1.949001         2.107322         1.373507
