19
Iteration:   392
 C        -2.886091         0.105570         2.963250
 C        -2.530968         0.121135         1.438542
 C        -3.309500        -0.685190         0.392527
 C        -2.002394        -1.118832         0.971642
 C        -0.709051        -1.247189         0.175001
 C        -0.202452         0.049573        -0.270917
 O         0.724783         0.066048        -1.100158
 O        -0.781214         1.329972         0.013596
 C        -1.773492         1.401410         1.118132
 H        -2.368851        -0.813751         3.533520
 H        -2.635507         1.111739         3.229242
 H        -3.967916         0.049051         3.156414
 H        -4.166089        -1.211253         0.786571
 H        -3.323536        -0.295687        -0.660314
 H        -2.150979        -1.849202         1.758564
 H         0.051105        -1.709778         0.903847
 H        -0.722535        -2.002810        -0.667055
 H        -1.170650         1.704274         2.029722
 H        -2.429881         2.205322         0.745754
