19
Iteration:  3832charge 0 multiplicity 1
 C        -3.195203         0.093219         2.959966
 C        -2.480104         0.091034         1.528113
 C        -3.225663        -0.372615         0.282209
 C        -2.107082        -1.174135         0.927843
 C        -0.789122        -1.192294         0.318988
 C        -0.235048         0.033259        -0.476566
 O         0.515276         0.040157        -1.415928
 O        -0.572972         1.243919         0.164574
 C        -1.353152         1.244227         1.406597
 H        -4.234398        -0.133959         2.621196
 H        -2.818550        -0.684179         3.621848
 H        -3.146691         1.086601         3.445691
 H        -4.256273        -0.733811         0.585334
 H        -3.130498         0.306970        -0.525120
 H        -2.562992        -2.129023         1.416114
 H        -0.182254        -1.360732         1.215641
 H        -0.523006        -2.081302        -0.327892
 H        -0.559666         1.312678         2.148618
 H        -1.790909         2.235048         1.336282
