19
Iteration:  2688
 C        -2.989459         0.026269         2.856993
 C        -2.546248         0.115232         1.439319
 C        -3.256713        -0.771836         0.439367
 C        -1.931887        -1.198835         1.098069
 C        -0.671755        -1.020180         0.467477
 C        -0.188085         0.196552        -0.335815
 O         0.652915         0.048267        -1.233148
 O        -0.896220         1.337923        -0.132755
 C        -1.640033         1.315962         1.101702
 H        -3.817361         0.694596         3.255386
 H        -3.202815        -1.024045         3.067342
 H        -2.327802         0.397957         3.613229
 H        -4.072223        -1.274175         0.799591
 H        -3.314661        -0.386761        -0.589623
 H        -2.006294        -2.124776         1.715397
 H         0.117955        -1.196755         1.187954
 H        -0.503805        -1.813047        -0.297176
 H        -0.964904         1.274009         1.966490
 H        -2.087876         2.359764         1.207936
