19
Iteration:  2698charge 0 multiplicity 1
 C        -2.986877         0.082684         2.945509
 C        -2.527190         0.027553         1.483955
 C        -3.347469        -0.668718         0.471545
 C        -1.981534        -1.214552         1.015839
 C        -0.542239        -1.077050         0.445141
 C        -0.157408         0.173030        -0.375980
 O         0.685854         0.076872        -1.208182
 O        -0.891292         1.354255        -0.129849
 C        -1.711478         1.276606         1.051881
 H        -4.007838         0.593908         3.090046
 H        -3.121465        -0.982899         3.172904
 H        -2.076505         0.292284         3.491606
 H        -4.141408        -1.264709         0.781585
 H        -3.349341        -0.101267        -0.444683
 H        -2.156053        -2.059957         1.733463
 H         0.206916        -1.116962         1.310570
 H        -0.348371        -1.998626        -0.121431
 H        -0.946982         1.447916         1.790275
 H        -2.482155         2.141765         1.027969
