19
Iteration:  2309
 C        -3.190755         0.296704         2.977094
 C        -2.378065         0.038663         1.642833
 C        -3.046597        -0.643137         0.483497
 C        -1.823379        -1.295302         0.955297
 C        -0.547136        -1.250369         0.295057
 C        -0.260264         0.082225        -0.360562
 O         0.662573         0.286294        -1.140971
 O        -1.148475         1.130366        -0.214672
 C        -1.629349         1.327306         1.176475
 H        -3.312813         1.353262         2.962838
 H        -4.188474        -0.058505         2.679513
 H        -2.772649        -0.105010         3.913413
 H        -3.875291        -1.234774         0.530503
 H        -3.038337        -0.210684        -0.520329
 H        -1.879195        -2.151623         1.650150
 H         0.286734        -1.568041         0.874823
 H        -0.594149        -1.969832        -0.590074
 H        -0.833277         1.470956         1.992968
 H        -2.275873         2.173262         1.047516
