19
Iteration:  2859
 C        -3.120235         0.037998         2.944214
 C        -2.364766         0.070475         1.542736
 C        -3.019471        -0.675703         0.291050
 C        -1.882019        -1.205394         1.030992
 C        -0.536245        -1.182825         0.473661
 C        -0.281457         0.091383        -0.357133
 O         0.481572         0.095728        -1.324171
 O        -0.889062         1.305415        -0.019990
 C        -1.772202         1.447390         1.148280
 H        -4.042475         0.557494         2.901781
 H        -3.241265        -0.944177         3.416808
 H        -2.534898         0.572161         3.748625
 H        -3.996302        -1.032162         0.416836
 H        -2.731883        -0.191182        -0.686417
 H        -2.151665        -2.051419         1.728793
 H         0.195916        -1.274641         1.278804
 H        -0.311400        -1.999529        -0.154249
 H        -1.118983         1.850801         1.953534
 H        -2.593307         2.133429         0.897193
