19
Iteration:  2552charge 0 multiplicity 1
 C        -3.220619         0.065708         2.834557
 C        -2.429086         0.094798         1.484748
 C        -3.016374        -0.580261         0.185576
 C        -1.836625        -1.191900         0.998100
 C        -0.373892        -1.026314         0.609530
 C        -0.299180         0.100566        -0.314533
 O         0.113024        -0.110110        -1.421290
 O        -0.752246         1.322458         0.092024
 C        -1.567099         1.327482         1.276741
 H        -4.008813         0.726273         2.607614
 H        -3.457712        -0.979393         2.933158
 H        -2.631139         0.451591         3.679454
 H        -4.015547        -0.987061         0.313642
 H        -2.747361         0.069146        -0.754521
 H        -2.086906        -2.126868         1.463901
 H         0.344219        -0.792193         1.471927
 H         0.038511        -1.883971         0.073038
 H        -0.965275         1.409671         2.181529
 H        -2.100513         2.266711         1.284581
