19
Iteration:  4923charge 0 multiplicity 1
 C        -3.143725         0.204031         2.785808
 C        -2.562635         0.143067         1.429864
 C        -3.190574        -0.508565         0.282524
 C        -2.031317        -1.252916         0.993459
 C        -0.711592        -1.230849         0.338703
 C        -0.241751         0.033056        -0.379267
 O         0.356427         0.129471        -1.378956
 O        -0.599529         1.332330         0.194860
 C        -1.347878         1.150768         1.411463
 H        -3.926031         0.967305         3.052940
 H        -3.670541        -0.732358         3.020264
 H        -2.442937         0.252881         3.650566
 H        -4.208319        -0.831665         0.525609
 H        -2.908155        -0.036937        -0.717287
 H        -2.349257        -2.208688         1.495500
 H         0.054482        -1.303357         1.101904
 H        -0.559016        -2.031072        -0.361964
 H        -0.528237         0.952678         2.098347
 H        -1.581957         2.162203         1.612285
