19
Iteration:  1938charge 0 multiplicity 1
 C        -3.147728         0.196601         2.960567
 C        -2.504713         0.095222         1.505417
 C        -3.057949        -0.660074         0.466614
 C        -1.870888        -1.179399         1.150562
 C        -0.571550        -1.281250         0.242765
 C        -0.280705         0.057445        -0.472362
 O         0.671234         0.226710        -1.170686
 O        -0.991826         1.222145        -0.119182
 C        -1.645698         1.336634         1.173777
 H        -3.824203         0.996955         3.032783
 H        -3.822628        -0.658633         3.116242
 H        -2.410344         0.273834         3.766873
 H        -3.931468        -1.292026         0.672294
 H        -3.067073        -0.473593        -0.604722
 H        -2.018612        -1.910226         1.929130
 H         0.341119        -1.460678         0.794044
 H        -0.704597        -2.135349        -0.436498
 H        -0.916824         1.544791         1.959285
 H        -2.325592         2.194569         0.964085
