19
Iteration:  2819
 C        -3.139484         0.345016         2.950115
 C        -2.445695         0.021916         1.606489
 C        -3.159474        -0.806441         0.392919
 C        -1.884321        -1.205053         1.078235
 C        -0.606783        -1.196217         0.256026
 C        -0.113506         0.106167        -0.359307
 O         0.648362         0.317564        -1.302716
 O        -0.920708         1.154711        -0.059520
 C        -1.762941         1.257088         1.230793
 H        -4.087286         0.884470         2.610733
 H        -3.614681        -0.558578         3.369062
 H        -2.511339         0.760525         3.735014
 H        -3.994300        -1.404744         0.762190
 H        -3.166105        -0.477282        -0.616593
 H        -1.769838        -2.114169         1.677619
 H         0.234817        -1.646892         0.929762
 H        -0.689112        -1.898804        -0.626151
 H        -1.056332         1.502027         1.998581
 H        -2.398959         2.170216         0.977581
