19
Iteration:  4767
 C        -3.319763         0.143437         2.868577
 C        -2.407079         0.052225         1.635031
 C        -3.061409        -0.301288         0.378696
 C        -1.952819        -1.138577         0.952854
 C        -0.665985        -1.315185         0.244766
 C        -0.202579         0.013914        -0.426169
 O         0.427183         0.110003        -1.489656
 O        -0.699418         1.149422         0.224939
 C        -1.465446         1.295519         1.412732
 H        -3.956360         1.051929         2.516429
 H        -3.973703        -0.797975         2.816156
 H        -2.763095         0.287759         3.872856
 H        -3.994657        -0.791361         0.608018
 H        -2.926847         0.221178        -0.549703
 H        -2.311366        -2.056013         1.370276
 H         0.196355        -1.677334         0.747180
 H        -0.781351        -1.919952        -0.672480
 H        -0.904907         1.352333         2.347196
 H        -2.081330         2.213117         1.271886
