19
Iteration:  2170
 C        -3.412546         0.104905         2.680960
 C        -2.443849         0.156116         1.488624
 C        -3.009298        -0.748741         0.413261
 C        -1.777576        -1.120409         1.146790
 C        -0.413709        -1.076187         0.475158
 C        -0.309015         0.165454        -0.435780
 O         0.214694         0.039653        -1.499237
 O        -0.688661         1.287186         0.118940
 C        -1.529955         1.264665         1.350548
 H        -4.446615         0.316605         2.450239
 H        -3.454335        -0.845639         3.260977
 H        -3.080701         0.881617         3.406422
 H        -3.927372        -1.249905         0.665902
 H        -2.991850        -0.732496        -0.697044
 H        -1.820615        -1.826416         2.002922
 H         0.546807        -1.264474         1.153211
 H        -0.348963        -1.881472        -0.214804
 H        -0.905935         1.159242         2.263145
 H        -2.000070         2.307073         1.239061
