19
Iteration:  1848charge 0 multiplicity 1
 C        -3.127172         0.093508         2.898040
 C        -2.552550         0.129918         1.520886
 C        -3.210652        -0.699255         0.437868
 C        -1.875383        -1.204219         1.136150
 C        -0.466423        -1.147858         0.437110
 C        -0.214998         0.085857        -0.382276
 O         0.533332         0.082485        -1.309573
 O        -0.859926         1.334230        -0.108913
 C        -1.654288         1.344657         1.157569
 H        -3.936140         0.839616         2.971438
 H        -3.652066        -0.842301         2.975885
 H        -2.442869         0.302860         3.706131
 H        -4.127191        -1.331044         0.508062
 H        -3.124475        -0.318835        -0.612890
 H        -1.967069        -2.073456         1.776842
 H         0.361548        -1.162129         1.163219
 H        -0.240524        -1.916696        -0.382041
 H        -0.978031         1.395363         2.046471
 H        -2.213186         2.250448         0.960856
