19
Iteration:  3428charge 0 multiplicity 1
 C        -3.122807         0.158290         2.827253
 C        -2.487952         0.059110         1.508087
 C        -3.168114        -0.460860         0.221123
 C        -2.054686        -1.232663         0.998318
 C        -0.698600        -1.162997         0.350743
 C        -0.314222         0.093226        -0.363505
 O         0.431101         0.094186        -1.341724
 O        -0.715625         1.319587         0.093174
 C        -1.300440         1.138507         1.431575
 H        -2.387503         0.440028         3.583211
 H        -4.081039         0.644475         2.774295
 H        -3.545357        -0.821226         3.207456
 H        -4.293830        -0.533619         0.356802
 H        -2.842788        -0.001892        -0.726081
 H        -2.392142        -2.174027         1.452710
 H         0.079006        -1.260958         1.040526
 H        -0.761400        -2.059076        -0.282819
 H        -0.528504         0.993327         2.141820
 H        -1.693767         2.082600         1.630202
