19
Iteration:   220
 C        -2.920324         0.181696         3.057691
 C        -2.465570         0.098788         1.611221
 C        -3.164539        -0.319303         0.270178
 C        -2.123647        -1.201366         0.864246
 C        -0.798100        -1.300102         0.143166
 C        -0.164649         0.036974        -0.287176
 O         0.797348         0.138390        -1.066782
 O        -0.891369         1.163834        -0.029811
 C        -1.680820         1.200228         1.203839
 H        -3.786113        -0.449114         3.275644
 H        -2.085974        -0.241286         3.688398
 H        -3.099080         1.238203         3.407593
 H        -4.145407        -0.796114         0.361615
 H        -3.113996         0.305717        -0.593468
 H        -2.610887        -2.220202         1.170067
 H        -0.099743        -2.037577         0.668204
 H        -1.038861        -1.675888        -0.837700
 H        -1.034226         1.727429         1.953834
 H        -2.421389         1.986260         0.987723
