19
Iteration:  4512
 C        -3.351360        -0.008537         2.812901
 C        -2.449328         0.220141         1.573891
 C        -3.136951        -0.356096         0.308701
 C        -1.980815        -1.112196         0.990716
 C        -0.555158        -1.200848         0.421685
 C        -0.189677         0.050552        -0.424776
 O         0.303790         0.056041        -1.526731
 O        -0.683070         1.189198         0.121464
 C        -1.315563         1.257817         1.463741
 H        -3.935368         0.836167         3.304874
 H        -4.166235        -0.751217         2.516372
 H        -2.803690        -0.475209         3.747606
 H        -4.106672        -0.785512         0.354098
 H        -2.930206         0.171697        -0.647021
 H        -2.245578        -1.957917         1.676916
 H         0.172763        -1.350744         1.185472
 H        -0.483105        -2.016626        -0.303938
 H        -0.574600         1.034909         2.278696
 H        -1.872085         2.202302         1.488008
