19
Iteration:   292
 C        -2.876495         0.242453         2.989153
 C        -2.525297         0.133527         1.474773
 C        -3.351937        -0.707079         0.516290
 C        -2.041169        -1.275178         1.017498
 C        -0.987813        -1.183871        -0.121364
 C        -0.161554         0.105756        -0.372604
 O         0.976262         0.104918        -0.817940
 O        -0.830506         1.311912        -0.096954
 C        -1.650374         1.271873         1.125637
 H        -3.449433         1.257287         3.205198
 H        -3.568860        -0.538752         3.173749
 H        -2.034146         0.146896         3.649630
 H        -4.377926        -0.998699         0.925717
 H        -3.474742        -0.599777        -0.553746
 H        -2.043503        -2.074165         1.681875
 H        -0.314920        -1.992929         0.016848
 H        -1.608067        -1.382158        -1.054849
 H        -0.869618         1.287299         1.919863
 H        -2.199871         2.217266         1.019252
