19
Iteration:  1496
 C        -3.223327         0.299744         2.984268
 C        -2.448118         0.043450         1.621968
 C        -3.114197        -0.643476         0.389487
 C        -1.929320        -1.247920         1.046875
 C        -0.505542        -1.215746         0.404657
 C        -0.171535         0.085940        -0.361294
 O         0.644511         0.156418        -1.308952
 O        -1.073223         1.168629        -0.161663
 C        -1.577489         1.300801         1.181160
 H        -3.468205         1.368394         3.024008
 H        -4.053046        -0.377775         3.182509
 H        -2.457883         0.071034         3.695052
 H        -4.133042        -1.108010         0.418858
 H        -2.918352         0.100756        -0.409878
 H        -2.070790        -2.220304         1.477099
 H         0.430228        -1.170015         1.141378
 H        -0.440860        -2.052987        -0.290726
 H        -0.851248         1.626736         1.891321
 H        -2.308028         2.120550         1.075711
