19
Iteration:  1106charge 0 multiplicity 1
 C        -2.985174         0.470793         2.949256
 C        -2.461563         0.015673         1.535099
 C        -3.243755        -0.865464         0.625695
 C        -1.935390        -1.321238         1.042259
 C        -0.812828        -1.247171         0.046908
 C        -0.176978         0.150326        -0.325323
 O         0.638233         0.242018        -1.208378
 O        -0.504817         1.257291         0.381576
 C        -1.930125         1.244739         0.752610
 H        -3.920157         0.945278         2.759732
 H        -3.134343        -0.355607         3.611917
 H        -2.322252         1.176385         3.395800
 H        -4.028391        -1.471186         1.181194
 H        -3.421287        -0.572346        -0.421361
 H        -1.932075        -2.221094         1.709061
 H         0.175141        -1.786433         0.221978
 H        -1.196227        -1.583415        -0.983665
 H        -2.093031         2.123679         1.391020
 H        -2.454394         1.423922        -0.246157
