19
Iteration:  4552
 C        -3.181272         0.232681         2.849998
 C        -2.390050         0.036755         1.592764
 C        -3.116562        -0.420507         0.221360
 C        -2.040200        -1.259858         0.936231
 C        -0.684553        -1.247771         0.276284
 C        -0.355389         0.038079        -0.409213
 O         0.423940         0.146544        -1.368286
 O        -0.736675         1.260516         0.150019
 C        -1.361188         1.164812         1.467110
 H        -4.068793         0.820847         2.749728
 H        -3.460293        -0.777256         3.103945
 H        -2.657488         0.611882         3.692144
 H        -4.155995        -0.770079         0.325481
 H        -2.746326         0.244640        -0.601727
 H        -2.421706        -2.131732         1.540033
 H         0.135551        -1.365475         1.066067
 H        -0.512945        -2.095642        -0.429854
 H        -0.581592         1.291041         2.226133
 H        -1.739749         2.164952         1.490898
