19
Iteration:  1028
 C        -2.552618         0.362849         2.991261
 C        -2.460942        -0.020706         1.547854
 C        -3.436549        -0.878324         0.755053
 C        -2.034409        -1.319354         0.930175
 C        -1.008850        -1.149996        -0.123200
 C        -0.097857         0.173091        -0.318195
 O         1.006042         0.213441        -0.745688
 O        -0.747664         1.367757         0.173024
 C        -2.095151         1.192808         0.544700
 H        -3.141349         1.247034         3.159860
 H        -3.106642        -0.367198         3.550203
 H        -1.573728         0.476669         3.333887
 H        -4.130924        -1.404109         1.429959
 H        -3.865847        -0.468816        -0.176816
 H        -1.820573        -2.130352         1.624656
 H        -0.174095        -1.972900        -0.156783
 H        -1.598874        -1.159001        -1.118297
 H        -2.537825         2.221766         0.903802
 H        -2.685767         0.976388        -0.403797
