19
Iteration:  2324
 C        -3.152357         0.333477         2.952153
 C        -2.409424        -0.026310         1.657405
 C        -3.165596        -0.612822         0.438210
 C        -1.894002        -1.268472         1.093505
 C        -0.474811        -1.229216         0.234790
 C        -0.177678         0.113317        -0.406239
 O         0.722995         0.354327        -1.174800
 O        -1.099642         1.072762        -0.166236
 C        -1.696956         1.161172         1.125456
 H        -3.297873         1.456238         3.110599
 H        -4.197535         0.034360         3.093714
 H        -2.587500        -0.015786         3.860053
 H        -4.198393        -1.035100         0.827801
 H        -3.060664         0.005074        -0.456263
 H        -2.183089        -2.253361         1.454224
 H         0.290396        -1.403330         0.982683
 H        -0.464523        -2.014118        -0.464983
 H        -0.981538         1.747394         1.650345
 H        -2.401517         2.024301         1.137986
