19
Iteration:   510
 C        -3.377107         0.188648         2.775044
 C        -2.447725         0.087940         1.521711
 C        -2.931707        -0.573040         0.183706
 C        -1.791922        -1.186283         0.935411
 C        -0.316546        -1.092078         0.590394
 C        -0.233138         0.062615        -0.329948
 O        -0.025917        -0.063577        -1.520608
 O        -0.649404         1.278600         0.213691
 C        -1.549996         1.276471         1.372980
 H        -4.356852         0.550980         2.342367
 H        -3.486439        -0.578845         3.507651
 H        -3.017200         0.960738         3.410845
 H        -3.897751        -1.087475         0.244840
 H        -2.642731        -0.022214        -0.792676
 H        -2.064620        -2.091019         1.499644
 H         0.300600        -0.980504         1.409393
 H         0.098497        -1.940603         0.000892
 H        -0.981703         1.374893         2.293644
 H        -2.138198         2.232986         1.285920
