19
Iteration:  4480
 C        -3.175568         0.222610         2.868070
 C        -2.437801         0.038314         1.517514
 C        -3.048391        -0.344720         0.152154
 C        -1.976158        -1.265611         0.884648
 C        -0.545277        -1.187320         0.434267
 C        -0.282271         0.047051        -0.335238
 O         0.237539         0.082783        -1.493254
 O        -0.680853         1.203172         0.225401
 C        -1.468353         1.153580         1.451295
 H        -3.336603         1.186102         3.440310
 H        -4.239175        -0.164036         2.807110
 H        -2.843384        -0.480600         3.711324
 H        -4.059627        -0.619098         0.168359
 H        -2.612616         0.248835        -0.654910
 H        -2.438050        -2.123971         1.397258
 H         0.124248        -1.253492         1.289318
 H        -0.162828        -1.885622        -0.306477
 H        -0.730002         1.535157         2.276695
 H        -2.166932         2.045751         1.366053
