19
Iteration:  1163
 C        -3.105830         0.295935         2.871162
 C        -2.640007         0.156552         1.383897
 C        -3.230152        -0.999171         0.594381
 C        -1.886272        -1.141187         1.226572
 C        -0.765710        -1.304641         0.146448
 C        -0.164866         0.085468        -0.463285
 O         0.613175         0.215699        -1.360528
 O        -0.511879         1.218006         0.349995
 C        -1.802684         1.458228         0.974694
 H        -3.453619         1.262164         3.044135
 H        -3.859247        -0.392037         3.205965
 H        -2.241645         0.143868         3.516990
 H        -4.150513        -1.438520         0.886579
 H        -3.155914        -1.001040        -0.544006
 H        -1.671100        -1.528781         2.218141
 H         0.188400        -1.752777         0.502102
 H        -1.021554        -2.045995        -0.669817
 H        -1.594175         1.997026         1.868035
 H        -2.265479         2.243025         0.228440
