19
Iteration:  3566
 C        -3.234588         0.226994         3.027798
 C        -2.469072         0.040489         1.686025
 C        -3.095098        -0.229155         0.354495
 C        -2.118398        -1.174151         0.919558
 C        -0.767376        -1.310721         0.150518
 C        -0.176085         0.017059        -0.520344
 O         0.667883         0.200004        -1.373392
 O        -0.767844         1.038410         0.133653
 C        -1.489012         1.142920         1.340925
 H        -4.260377         0.455239         2.816438
 H        -3.190596        -0.674001         3.666440
 H        -2.897386         1.113484         3.537633
 H        -4.154626        -0.459936         0.588264
 H        -2.747188         0.440014        -0.359422
 H        -2.548968        -2.132267         1.087247
 H         0.069868        -1.273338         0.951815
 H        -0.725592        -2.214680        -0.429553
 H        -0.641832         1.169808         1.998526
 H        -1.863581         2.229111         1.355052
