19
Iteration:  3803charge 0 multiplicity 1
 C        -3.184853        -0.033348         2.814938
 C        -2.480562         0.232884         1.487315
 C        -3.139082        -0.312697         0.268773
 C        -1.973128        -1.102573         0.986841
 C        -0.753726        -1.238030         0.298203
 C        -0.260664         0.043417        -0.314522
 O         0.358796        -0.056770        -1.387803
 O        -0.654914         1.267566         0.138788
 C        -1.333006         1.298972         1.439062
 H        -4.165798        -0.312076         2.392737
 H        -2.757968        -0.792254         3.470315
 H        -3.254188         0.928460         3.357152
 H        -4.116428        -0.770524         0.467534
 H        -2.839600         0.154193        -0.706960
 H        -2.399061        -1.860489         1.611879
 H        -0.091071        -1.675000         1.139444
 H        -0.812252        -1.907904        -0.577033
 H        -0.569064         0.913477         2.238636
 H        -1.517647         2.326352         1.708177
