19
Iteration:  3375charge 0 multiplicity 1
 C        -3.305184         0.180895         2.898253
 C        -2.445041         0.033187         1.661582
 C        -3.015165        -0.376757         0.300059
 C        -2.015782        -1.220406         0.961824
 C        -0.562041        -1.242378         0.353164
 C        -0.196055         0.050768        -0.457776
 O         0.360009         0.158213        -1.532228
 O        -0.690276         1.171773         0.228487
 C        -1.531434         1.233210         1.338353
 H        -3.110602        -0.639979         3.641306
 H        -3.057111         1.096568         3.409785
 H        -4.383261         0.197511         2.676027
 H        -4.067261        -0.725666         0.215688
 H        -2.550235         0.055221        -0.606647
 H        -2.364646        -2.150608         1.446474
 H         0.114525        -1.337910         1.259589
 H        -0.446055        -2.173009        -0.308447
 H        -0.715879         1.346528         2.109424
 H        -2.047774         2.185599         1.235481
