19
Iteration:  3953charge 0 multiplicity 1
 C        -3.168465         0.130449         2.992541
 C        -2.481577         0.127702         1.587194
 C        -3.210720        -0.260516         0.337192
 C        -2.116896        -1.146416         0.869517
 C        -0.731595        -1.332162         0.217006
 C        -0.193594        -0.068546        -0.454388
 O         0.613412         0.133755        -1.355200
 O        -0.682307         1.199174         0.145798
 C        -1.486640         1.198264         1.403756
 H        -3.508218        -0.908512         3.159494
 H        -2.291165         0.385331         3.568707
 H        -3.943841         0.891900         3.039803
 H        -4.221562        -0.538433         0.290867
 H        -2.915452         0.465375        -0.454331
 H        -2.527045        -2.040568         1.364116
 H         0.025678        -1.630217         0.856773
 H        -0.821975        -2.182375        -0.496308
 H        -0.796900         1.344028         2.245403
 H        -1.977980         2.137151         1.229743
