19
Iteration:  2397charge 0 multiplicity 1
 C        -3.029390         0.047608         2.959471
 C        -2.414749         0.114965         1.537122
 C        -3.146678        -0.673287         0.412122
 C        -1.875269        -1.190315         1.117527
 C        -0.635457        -1.236830         0.357355
 C        -0.230294         0.082136        -0.404945
 O         0.653980         0.117991        -1.215525
 O        -0.919616         1.317077        -0.073986
 C        -1.798016         1.398714         1.048418
 H        -4.012150         0.450906         3.043296
 H        -3.220823        -0.977006         3.341009
 H        -2.351563         0.545388         3.699949
 H        -4.226602        -0.994817         0.654758
 H        -3.013173        -0.228192        -0.561180
 H        -1.950444        -1.995081         1.878309
 H         0.195604        -1.332260         1.119663
 H        -0.447406        -2.034594        -0.430219
 H        -1.319365         2.109253         1.781558
 H        -2.603411         2.019301         0.663929
