19
Iteration:  4362
 C        -3.090173         0.166085         2.869899
 C        -2.445013         0.095059         1.491361
 C        -3.135892        -0.315308         0.212840
 C        -2.051848        -1.268583         0.978514
 C        -0.663841        -1.298766         0.250531
 C        -0.310969         0.041887        -0.385477
 O         0.470791         0.185807        -1.298518
 O        -0.756159         1.205106         0.156976
 C        -1.439080         1.197507         1.389720
 H        -4.190260         0.430473         2.831710
 H        -3.118873        -0.747728         3.544758
 H        -2.721156         0.994797         3.510910
 H        -4.121712        -0.643079         0.322346
 H        -2.958220         0.129242        -0.743393
 H        -2.250311        -2.253245         1.377490
 H         0.136732        -1.499762         1.082492
 H        -0.602703        -2.116894        -0.465313
 H        -0.926324         0.875890         2.292071
 H        -1.800313         2.201713         1.706981
