19
Iteration:   483
 C        -3.279323         0.159114         2.651246
 C        -2.409642         0.134377         1.507913
 C        -2.961229        -0.654349         0.241094
 C        -1.945669        -1.235067         1.169315
 C        -0.511511        -1.147537         0.623733
 C        -0.364716         0.080368        -0.420013
 O         0.245215         0.109781        -1.494336
 O        -0.810013         1.318033         0.060708
 C        -1.351908         1.220204         1.397343
 H        -4.332529         0.134622         2.409604
 H        -3.083990        -0.587656         3.522896
 H        -3.300559         1.136738         3.331653
 H        -4.005632        -0.958964         0.104974
 H        -2.575313        -0.314112        -0.671187
 H        -2.309688        -2.028612         1.860520
 H         0.350615        -0.872910         1.409297
 H        -0.182758        -1.983038         0.017344
 H        -0.548353         0.836093         2.136865
 H        -1.857017         2.147651         1.646065
