19
Iteration:  4572
 C        -3.184720         0.321404         2.949714
 C        -2.432227         0.054995         1.500852
 C        -3.147744        -0.361062         0.363524
 C        -2.077152        -1.312120         0.839046
 C        -0.622998        -1.272193         0.241276
 C        -0.179009         0.042560        -0.342106
 O         0.465334         0.243461        -1.425138
 O        -0.765210         1.143499         0.202830
 C        -1.490587         1.113070         1.384543
 H        -3.944967         1.035596         2.663674
 H        -3.466184        -0.503884         3.569133
 H        -2.369197         0.846526         3.388150
 H        -4.130546        -0.862087         0.499723
 H        -2.944097         0.042704        -0.657243
 H        -2.256891        -2.255316         1.368806
 H         0.128859        -1.678291         1.010899
 H        -0.645678        -2.086996        -0.522106
 H        -0.790957         1.136894         2.378432
 H        -1.931552         2.131116         1.499938
