19
Iteration:  1965
 C        -3.282771         0.212274         2.882622
 C        -2.478311         0.074976         1.548867
 C        -3.184478        -0.765751         0.599860
 C        -1.888091        -1.252776         1.129060
 C        -0.609836        -1.121753         0.235523
 C        -0.119575         0.157856        -0.384716
 O         0.691963         0.248951        -1.281539
 O        -1.015642         1.163033        -0.163223
 C        -1.483702         1.267791         1.194760
 H        -4.189616         0.898455         2.583434
 H        -3.693968        -0.780708         3.152913
 H        -2.802155         0.747705         3.733262
 H        -4.138429        -1.080179         1.072346
 H        -3.234376        -0.488100        -0.459029
 H        -1.780796        -1.791261         2.158051
 H         0.261375        -1.559119         0.806175
 H        -0.858881        -1.709975        -0.655103
 H        -0.627187         1.061349         1.889911
 H        -1.954053         2.278121         1.241609
