19
Iteration:    64
 C        -3.430678         0.116664         2.659076
 C        -2.487396         0.181152         1.465447
 C        -3.056818        -0.486405         0.197730
 C        -1.918706        -1.186184         0.944319
 C        -0.431183        -1.155907         0.570598
 C        -0.264877         0.015683        -0.452230
 O        -0.018496         0.103516        -1.610263
 O        -0.428676         1.192669         0.351201
 C        -1.347790         1.236823         1.541299
 H        -4.519760        -0.179496         2.384737
 H        -3.105487        -0.463127         3.468531
 H        -3.531085         1.113808         3.024189
 H        -4.072411        -0.867425         0.420349
 H        -2.924596        -0.165179        -0.854872
 H        -2.129099        -2.008516         1.487892
 H         0.176555        -0.775535         1.444784
 H         0.054639        -2.178328         0.495989
 H        -0.718003         0.865252         2.348890
 H        -1.591233         2.294968         1.688759
