19
Iteration:   978charge 0 multiplicity 1
 C        -2.416248         0.379265         2.834802
 C        -2.511137         0.141951         1.405996
 C        -3.337796        -1.180911         1.044911
 C        -1.849690        -1.139449         0.898027
 C        -1.209484        -0.992130        -0.586296
 C        -0.219327         0.175650        -0.321115
 O         1.027741         0.003979        -0.325440
 O        -0.739746         1.312158         0.256848
 C        -2.242078         1.335348         0.422062
 H        -2.827977         1.390720         3.116063
 H        -3.157617        -0.296211         3.379667
 H        -1.361804         0.143427         3.291211
 H        -3.731786        -1.674612         1.998598
 H        -3.872527        -1.476411         0.134728
 H        -1.111204        -1.669797         1.619146
 H        -0.715085        -1.899053        -0.819021
 H        -1.909818        -0.755984        -1.342718
 H        -2.409704         2.306428         0.758702
 H        -2.823970         1.276294        -0.492689
