19
Iteration:   857charge 0 multiplicity 1
 C        -2.232945         0.203975         2.945853
 C        -2.519298         0.116112         1.396846
 C        -3.482089        -0.955289         0.838801
 C        -2.030558        -1.203468         0.873903
 C        -1.047227        -1.086813        -0.251626
 C        -0.170301         0.165863        -0.237474
 O         0.997299         0.142029        -0.428942
 O        -0.814024         1.380031         0.131082
 C        -2.237195         1.224155         0.422546
 H        -2.969766         0.950802         3.374193
 H        -2.052738        -0.812530         3.412888
 H        -1.188024         0.690667         3.101643
 H        -4.190934        -1.500391         1.449219
 H        -3.981455        -0.648284        -0.160920
 H        -1.651185        -1.909858         1.655072
 H        -0.201762        -1.754891        -0.202176
 H        -1.505602        -1.194204        -1.202828
 H        -2.504997         2.131942         0.903756
 H        -2.800970         1.163702        -0.509074
