19
Iteration:  2998charge 0 multiplicity 1
 C        -3.408454         0.086863         2.909620
 C        -2.523628         0.138973         1.504149
 C        -3.049738        -0.818895         0.409109
 C        -1.844374        -1.246467         1.089237
 C        -0.433090        -1.045285         0.534280
 C        -0.229388         0.127733        -0.495653
 O         0.352030         0.118617        -1.559306
 O        -0.648459         1.318341         0.082510
 C        -1.622967         1.336668         1.254545
 H        -4.196829         0.795922         2.793765
 H        -3.689501        -0.967784         3.117008
 H        -2.768726         0.418924         3.764018
 H        -3.991704        -1.353622         0.695947
 H        -3.136927        -0.546024        -0.617546
 H        -2.005133        -2.159241         1.714921
 H         0.304146        -0.828527         1.363121
 H         0.025033        -1.883089        -0.040076
 H        -0.982670         1.459441         2.149045
 H        -2.235282         2.160801         1.100066
