19
Iteration:   801charge 0 multiplicity 1
 C        -2.814716         0.469333         2.919923
 C        -2.549685         0.109017         1.479762
 C        -3.350248        -1.119982         0.921745
 C        -1.848566        -1.258292         0.967540
 C        -1.186227        -1.001790        -0.409964
 C        -0.086154         0.174179        -0.315280
 O         0.971781         0.196127        -0.852999
 O        -0.491727         1.239903         0.461440
 C        -2.070301         1.154082         0.561838
 H        -3.358042         1.514994         3.093719
 H        -3.558865        -0.269344         3.378648
 H        -1.852875         0.716156         3.560854
 H        -4.005919        -1.649016         1.677926
 H        -3.861648        -1.044308        -0.051864
 H        -1.396405        -1.994692         1.566374
 H        -0.633751        -1.790895        -0.977569
 H        -1.965757        -0.799661        -1.095282
 H        -2.463746         2.101064         0.949667
 H        -2.441529         0.959285        -0.422497
