19
Iteration:  3191charge 0 multiplicity 1
 C        -3.214564         0.036388         2.984528
 C        -2.507954         0.070246         1.520730
 C        -3.291753        -0.663388         0.445856
 C        -1.918693        -1.203547         0.969602
 C        -0.581998        -1.156499         0.314972
 C        -0.158565         0.109683        -0.441992
 O         0.605648         0.111616        -1.350765
 O        -0.683664         1.281069         0.013090
 C        -1.646198         1.439274         1.232238
 H        -2.511676         0.612104         3.770423
 H        -4.255571         0.470766         3.033578
 H        -3.249581        -1.047184         3.156615
 H        -4.181972        -1.174575         0.924038
 H        -3.592627        -0.281431        -0.538789
 H        -2.208508        -2.051306         1.545346
 H        -0.003837        -1.151992         1.205687
 H        -0.280030        -2.071920        -0.283625
 H        -1.045784         1.509416         2.129902
 H        -2.335388         2.359286         1.025958
