19
Iteration:    83charge 0 multiplicity 1
 C        -3.382325         0.247749         2.630766
 C        -2.466637         0.102410         1.418238
 C        -3.029895        -0.568475         0.174135
 C        -1.945249        -1.184443         0.973079
 C        -0.479762        -1.056910         0.477849
 C        -0.259323         0.134262        -0.356744
 O        -0.068445         0.008927        -1.528053
 O        -0.427630         1.264961         0.381521
 C        -1.301432         1.094776         1.516739
 H        -4.406026        -0.268208         2.378775
 H        -2.941433        -0.267567         3.547095
 H        -3.630805         1.301634         2.927892
 H        -4.054420        -1.085095         0.195463
 H        -2.765950        -0.093424        -0.772627
 H        -2.110365        -2.075884         1.641330
 H         0.200146        -1.106067         1.353768
 H        -0.198954        -1.861170        -0.249774
 H        -0.767738         0.784285         2.504962
 H        -1.776431         2.095323         1.694547
