19
Iteration:  4935charge 0 multiplicity 1
 C        -3.131910         0.232698         2.873529
 C        -2.436201         0.105057         1.496351
 C        -3.223516        -0.559781         0.271510
 C        -2.141427        -1.277188         0.935468
 C        -0.695899        -1.257803         0.313992
 C        -0.303963         0.147315        -0.414737
 O         0.431752         0.111831        -1.385819
 O        -0.585659         1.306593         0.219823
 C        -1.372501         1.207702         1.384396
 H        -3.733779         1.213011         2.723482
 H        -3.756548        -0.657672         3.036123
 H        -2.297455         0.409688         3.617012
 H        -4.173881        -1.085824         0.251635
 H        -3.145763        -0.128677        -0.746646
 H        -2.387963        -2.146492         1.559335
 H        -0.022446        -1.332312         1.153749
 H        -0.423390        -2.068658        -0.318856
 H        -0.862247         0.839469         2.250874
 H        -1.827335         2.129086         1.688524
