19
Iteration:  1138charge 0 multiplicity 1
 C        -3.218262         0.353038         2.887253
 C        -2.509163         0.134150         1.575366
 C        -3.188416        -0.888271         0.699307
 C        -1.850020        -1.194847         1.103260
 C        -0.757819        -1.183199         0.039419
 C        -0.181372         0.113353        -0.412969
 O         0.606158         0.219873        -1.318388
 O        -0.480963         1.151377         0.368122
 C        -1.816047         1.310202         0.839289
 H        -3.804474         1.278291         2.742679
 H        -3.946695        -0.430078         3.053211
 H        -2.640009         0.412251         3.785629
 H        -3.953065        -1.438860         1.336654
 H        -3.546472        -0.903826        -0.342435
 H        -1.616440        -1.875605         1.949833
 H         0.185256        -1.843538         0.249805
 H        -1.110197        -1.728690        -0.919523
 H        -1.710656         2.190230         1.507042
 H        -2.348271         1.707017        -0.027905
