19
Iteration:  4202
 C        -3.232429         0.196798         2.968668
 C        -2.456659         0.116650         1.506190
 C        -3.313745        -0.398045         0.329051
 C        -2.081946        -1.183639         0.820125
 C        -0.714675        -1.208978         0.162235
 C        -0.165948         0.025612        -0.418978
 O         0.574957         0.153241        -1.356077
 O        -0.674190         1.195337         0.213050
 C        -1.390087         1.134405         1.467799
 H        -3.272454        -0.732413         3.579794
 H        -2.734145         0.948869         3.569122
 H        -4.209414         0.568458         2.649316
 H        -4.266920        -0.915165         0.533033
 H        -3.179650         0.045033        -0.651481
 H        -2.327101        -2.124911         1.264071
 H        -0.014590        -1.612228         0.932181
 H        -0.702376        -1.994807        -0.640837
 H        -0.677890         0.866618         2.287789
 H        -1.517479         2.220350         1.630550
