19
Iteration:  1558charge 0 multiplicity 1
 C        -3.042018         0.091940         2.945039
 C        -2.581180         0.160575         1.490421
 C        -3.156138        -0.791208         0.390146
 C        -1.926806        -1.128732         1.134972
 C        -0.613803        -1.074992         0.503478
 C        -0.173396         0.111434        -0.384604
 O         0.554411         0.016705        -1.337984
 O        -0.772652         1.328259        -0.048089
 C        -1.723812         1.352715         1.026773
 H        -3.798493         0.690249         3.443138
 H        -3.540360        -0.915000         2.895397
 H        -2.224841        -0.136729         3.691053
 H        -4.194186        -1.240730         0.535026
 H        -3.165267        -0.277806        -0.592474
 H        -2.187517        -1.941906         1.808518
 H         0.211062        -1.105306         1.197735
 H        -0.555550        -2.004973        -0.033180
 H        -0.941076         1.432851         1.904102
 H        -2.265172         2.362606         0.931301
