19
Iteration:  2290
 C        -3.200175         0.174168         2.833594
 C        -2.436642         0.130280         1.540541
 C        -3.073071        -0.711870         0.433313
 C        -1.795183        -1.222763         1.214830
 C        -0.569053        -1.217501         0.264461
 C        -0.295577         0.127815        -0.392917
 O         0.659445         0.176366        -1.163917
 O        -1.119796         1.228920        -0.169852
 C        -1.572755         1.344793         1.219503
 H        -3.289724         1.189173         3.258649
 H        -4.117256        -0.415604         2.854607
 H        -2.499037        -0.336985         3.572941
 H        -4.112867        -1.019067         0.739593
 H        -3.044534        -0.481183        -0.666313
 H        -1.959658        -2.131000         1.815361
 H         0.337207        -1.359000         0.776528
 H        -0.484901        -1.885318        -0.535523
 H        -0.695025         1.303173         1.787609
 H        -2.225798         2.195169         1.262317
