19
Iteration:  2213
 C        -3.183663         0.199933         2.890444
 C        -2.440812         0.017624         1.530281
 C        -2.984956        -0.582127         0.299745
 C        -1.834372        -1.318339         1.066214
 C        -0.487732        -1.201336         0.486011
 C        -0.288466         0.060558        -0.341706
 O         0.275983         0.173952        -1.417572
 O        -0.685268         1.249468         0.126796
 C        -1.743013         1.348839         1.148725
 H        -4.217143         0.439329         2.715488
 H        -3.222117        -0.720181         3.491862
 H        -2.636020         1.030226         3.390418
 H        -3.938816        -1.024128         0.356480
 H        -2.808742        -0.240217        -0.774773
 H        -1.975871        -2.303588         1.584868
 H         0.262751        -1.077308         1.283846
 H        -0.157625        -2.001710        -0.121795
 H        -1.323958         1.992952         1.898790
 H        -2.639664         1.865010         0.758669
