19
Iteration:  1219
 C        -3.143432         0.224222         2.993518
 C        -2.474586         0.058675         1.631368
 C        -3.143584        -0.516734         0.391270
 C        -1.945006        -1.291172         1.029828
 C        -0.552788        -1.180139         0.404022
 C        -0.147510         0.064691        -0.435615
 O         0.603757         0.069943        -1.363201
 O        -0.787321         1.225976        -0.005960
 C        -1.823140         1.315224         1.106230
 H        -4.002049         0.809919         3.085221
 H        -3.299727        -0.763857         3.392670
 H        -2.386636         0.583189         3.685733
 H        -4.179003        -0.843296         0.536069
 H        -2.926197        -0.031649        -0.532718
 H        -2.205502        -2.182810         1.606030
 H         0.185854        -1.130112         1.213936
 H        -0.402048        -2.110289        -0.158030
 H        -1.329854         1.813818         1.939827
 H        -2.513039         2.056505         0.571884
