19
Iteration:  1174
 C        -2.999719         0.279951         2.797694
 C        -2.601418         0.193566         1.389319
 C        -3.225770        -0.888938         0.530587
 C        -1.879412        -1.213221         1.176184
 C        -0.677979        -1.206471         0.217256
 C        -0.223302         0.106862        -0.375310
 O         0.562686         0.143605        -1.334278
 O        -0.562951         1.221541         0.308321
 C        -1.842201         1.366169         1.000794
 H        -3.381277         1.239885         2.924534
 H        -3.815759        -0.362464         3.053335
 H        -2.174039         0.200359         3.487844
 H        -4.081748        -1.276950         1.011658
 H        -3.186351        -0.977115        -0.603719
 H        -1.747661        -1.694835         2.147291
 H         0.112851        -1.714104         0.796829
 H        -1.011977        -1.812792        -0.682669
 H        -1.500656         1.821763         1.887856
 H        -2.562535         2.117896         0.446807
