19
Iteration:  4026charge 0 multiplicity 1
 C        -3.347981         0.063578         2.906790
 C        -2.513491         0.195958         1.581261
 C        -3.210258        -0.379772         0.324657
 C        -2.056302        -1.143296         0.987344
 C        -0.709234        -1.161035         0.254856
 C        -0.267720         0.030279        -0.499751
 O         0.523452         0.118630        -1.449752
 O        -0.538433         1.128557         0.148603
 C        -1.356924         1.184612         1.471977
 H        -4.378479        -0.068699         2.623439
 H        -2.935810        -0.852279         3.341175
 H        -3.222901         0.962994         3.451617
 H        -4.138477        -0.774681         0.560408
 H        -3.347051         0.290993        -0.519029
 H        -2.271265        -2.124126         1.545935
 H         0.018680        -1.219706         1.174383
 H        -0.470836        -2.117086        -0.281186
 H        -0.547764         1.240017         2.146895
 H        -1.677359         2.260545         1.331395
