19
Iteration:  4420
 C        -3.356459         0.077394         2.820235
 C        -2.482337         0.139337         1.578057
 C        -3.122111        -0.422556         0.329661
 C        -1.985442        -1.192723         1.047606
 C        -0.667939        -1.185399         0.321321
 C        -0.226770         0.043773        -0.461078
 O         0.393281         0.122812        -1.532118
 O        -0.608452         1.220580         0.171753
 C        -1.371497         1.229810         1.486386
 H        -3.933258         1.053818         2.771010
 H        -3.865584        -0.853215         2.496903
 H        -2.586332        -0.051640         3.622035
 H        -4.209305        -0.768398         0.531924
 H        -2.984826         0.196432        -0.603635
 H        -2.163606        -2.093722         1.625977
 H         0.019663        -1.297076         1.188961
 H        -0.452051        -2.126963        -0.239109
 H        -0.694380         0.991841         2.338231
 H        -1.895226         2.219596         1.450034
