19
Iteration:  4803charge 0 multiplicity 1
 C        -3.178311         0.165866         2.860096
 C        -2.448619         0.145158         1.475874
 C        -3.093421        -0.487091         0.227629
 C        -2.099802        -1.325501         0.926612
 C        -0.686089        -1.231716         0.379735
 C        -0.263819         0.099273        -0.385249
 O         0.318503         0.137381        -1.486808
 O        -0.536831         1.281461         0.256975
 C        -1.408615         1.203040         1.426502
 H        -3.694417         1.235751         2.845913
 H        -4.036980        -0.469862         3.189602
 H        -2.546776         0.316508         3.775968
 H        -4.109166        -0.985025         0.408442
 H        -3.007822        -0.161005        -0.842542
 H        -2.501833        -2.218436         1.552616
 H        -0.008946        -1.473834         1.215583
 H        -0.594289        -2.078852        -0.315030
 H        -0.796868         1.132664         2.297953
 H        -1.821394         2.212281         1.495997
