19
Iteration:  1527
 C        -2.939956         0.248638         2.868523
 C        -2.487055         0.023648         1.493372
 C        -3.203815        -0.658132         0.346150
 C        -1.907208        -1.208459         0.963270
 C        -0.470945        -1.198847         0.541866
 C        -0.245622         0.069339        -0.356261
 O         0.549708         0.097000        -1.248615
 O        -0.949802         1.239622        -0.029695
 C        -1.743372         1.333932         1.114645
 H        -3.165172         1.294089         3.117090
 H        -3.869937        -0.323059         3.065289
 H        -2.115151        -0.040966         3.521647
 H        -4.157611        -1.242770         0.551164
 H        -3.197376         0.060980        -0.511623
 H        -2.186795        -2.096447         1.522055
 H         0.226455        -0.968048         1.311382
 H        -0.199366        -2.120233         0.094963
 H        -1.177235         1.648980         1.960821
 H        -2.544338         2.113163         1.041892
