19
Iteration:  4015charge 0 multiplicity 1
 C        -3.200447         0.103373         2.830841
 C        -2.499520         0.145173         1.534947
 C        -3.286111        -0.385201         0.358459
 C        -2.123001        -1.162666         0.900770
 C        -0.701898        -1.167078         0.308259
 C        -0.183886         0.046875        -0.429321
 O         0.483906         0.073336        -1.426210
 O        -0.572166         1.219512         0.200736
 C        -1.352985         1.188556         1.401281
 H        -4.251499        -0.126510         2.696563
 H        -2.816251        -0.697438         3.504607
 H        -3.179150         0.865618         3.577205
 H        -4.254502        -0.674449         0.584874
 H        -3.050573        -0.046648        -0.675476
 H        -2.307845        -2.055458         1.583690
 H         0.152404        -1.371778         1.077926
 H        -0.701499        -1.974426        -0.478761
 H        -0.812303         1.058124         2.323758
 H        -1.946048         2.149857         1.432001
