19
Iteration:   939charge 0 multiplicity 1
 C        -2.175678         0.492023         2.887850
 C        -2.417991         0.048440         1.359456
 C        -3.380881        -1.137265         0.932648
 C        -1.870683        -1.244106         0.791193
 C        -1.262829        -0.947555        -0.542662
 C        -0.264662         0.125158        -0.226213
 O         0.979197        -0.014381        -0.102893
 O        -0.817668         1.377635         0.121162
 C        -2.276821         1.278794         0.444168
 H        -2.961417         1.091262         3.302893
 H        -2.197043        -0.425244         3.427704
 H        -1.272564         1.010987         2.991534
 H        -3.868710        -1.778796         1.646897
 H        -3.828967        -1.073442        -0.026470
 H        -1.390151        -1.960852         1.390399
 H        -0.540471        -1.702462        -0.988983
 H        -2.032461        -0.652495        -1.333895
 H        -2.618182         2.242279         0.979232
 H        -2.827221         1.087706        -0.505387
