19
Iteration:  1860charge 0 multiplicity 1
 C        -3.099197         0.085050         2.939593
 C        -2.569254         0.117559         1.458800
 C        -3.199348        -0.769023         0.406626
 C        -1.915302        -1.099862         1.058427
 C        -0.540336        -1.097527         0.506159
 C        -0.183553         0.111880        -0.427939
 O         0.604822         0.109176        -1.361668
 O        -0.815124         1.266838        -0.053648
 C        -1.736617         1.310063         1.127713
 H        -3.750912         0.859322         3.302338
 H        -3.497714        -0.895119         3.197129
 H        -2.172396         0.043688         3.529126
 H        -4.152419        -1.033912         0.966810
 H        -3.249118        -0.428576        -0.631105
 H        -2.030594        -1.908346         1.755263
 H         0.103348        -1.113886         1.343225
 H        -0.417897        -2.146318         0.103304
 H        -1.005455         1.494683         1.972752
 H        -2.299013         2.256620         1.145020
