19
Iteration:   903
 C        -2.105622         0.330730         2.922792
 C        -2.380555         0.052985         1.404479
 C        -3.545757        -0.851742         0.964090
 C        -2.052668        -1.226076         0.690287
 C        -1.026012        -1.079893        -0.479571
 C        -0.209849         0.119115        -0.162682
 O         1.058077         0.205787        -0.117041
 O        -0.920132         1.233277        -0.053370
 C        -2.295156         1.224493         0.479703
 H        -3.047871         0.540194         3.435281
 H        -1.532932        -0.547767         3.292101
 H        -1.390756         1.149190         3.245603
 H        -4.091342        -1.594132         1.607316
 H        -4.267955        -0.480366         0.195472
 H        -1.721213        -2.178707         1.301927
 H        -0.583221        -2.025094        -0.440677
 H        -1.512934        -1.009515        -1.434160
 H        -2.513254         2.133475         1.002262
 H        -2.905610         1.195005        -0.383642
