19
Iteration:  1641charge 0 multiplicity 1
 C        -3.298104         0.364360         2.762376
 C        -2.506477         0.105387         1.508703
 C        -3.033887        -0.813000         0.407445
 C        -1.827302        -1.233742         1.068417
 C        -0.477808        -1.105553         0.402737
 C        -0.270283         0.158356        -0.415491
 O         0.410428         0.104243        -1.397093
 O        -0.949401         1.252077        -0.016613
 C        -1.477813         1.191940         1.421683
 H        -4.053733         1.117192         2.456380
 H        -3.835455        -0.467067         3.180573
 H        -2.588717         0.887964         3.399297
 H        -3.699697        -1.690170         0.660137
 H        -2.859521        -0.519912        -0.577557
 H        -1.945419        -1.992064         1.888224
 H         0.296843        -1.104148         1.236108
 H        -0.320208        -2.046301        -0.211613
 H        -0.567754         0.997106         1.970835
 H        -1.875059         2.143673         1.625291
