19
Iteration:  3818charge 0 multiplicity 1
 C        -3.222921         0.000606         2.826812
 C        -2.444998         0.234146         1.547475
 C        -3.233330        -0.335985         0.310263
 C        -2.141476        -1.146694         0.989110
 C        -0.691458        -1.200296         0.299415
 C        -0.262463         0.080358        -0.407784
 O         0.447666        -0.060969        -1.388697
 O        -0.576266         1.296914         0.127643
 C        -1.335650         1.225343         1.412006
 H        -4.247351        -0.294102         2.886097
 H        -2.688471        -0.850993         3.316129
 H        -3.239506         0.798939         3.571159
 H        -4.308555        -0.443525         0.409714
 H        -2.989605        -0.154146        -0.762516
 H        -2.211457        -2.019115         1.626907
 H         0.163759        -1.340939         0.899307
 H        -0.689847        -1.986752        -0.419151
 H        -0.686133         0.996880         2.272635
 H        -1.815061         2.269956         1.532195
