19
Iteration:  3270charge 0 multiplicity 1
 C        -3.285845         0.190816         2.845471
 C        -2.470388         0.024122         1.538503
 C        -3.056797        -0.429779         0.313769
 C        -1.904407        -1.253711         0.998598
 C        -0.430522        -1.259027         0.382087
 C        -0.228918         0.083584        -0.377007
 O         0.412032         0.120803        -1.416180
 O        -0.934590         1.272343         0.080883
 C        -1.442462         1.219997         1.391131
 H        -4.280254         0.634575         2.489186
 H        -3.469675        -0.721965         3.518878
 H        -2.768529         1.007423         3.411163
 H        -4.084992        -0.752139         0.448916
 H        -2.864861         0.123721        -0.597909
 H        -2.257001        -2.231723         1.443685
 H         0.293362        -1.628076         1.053200
 H        -0.384822        -1.967997        -0.446694
 H        -0.678536         1.223449         2.148916
 H        -2.075935         2.147711         1.668232
