19
Iteration:  4267charge 0 multiplicity 1
 C        -3.042912         0.073938         2.910560
 C        -2.504308         0.119201         1.547890
 C        -3.121123        -0.248952         0.307387
 C        -1.989558        -1.187528         0.909673
 C        -0.771897        -1.319998         0.166803
 C        -0.255477         0.052039        -0.327110
 O         0.571867         0.070608        -1.222707
 O        -0.777565         1.202190         0.135867
 C        -1.518808         1.298820         1.328204
 H        -3.586996        -0.896201         3.021198
 H        -2.332406         0.099592         3.741736
 H        -3.832015         0.837814         2.910850
 H        -4.115251        -0.668282         0.185908
 H        -2.875235         0.283163        -0.638526
 H        -2.420718        -2.071006         1.315785
 H         0.039423        -1.855278         0.573343
 H        -1.060895        -1.835243        -0.771958
 H        -0.836294         1.082469         2.170201
 H        -1.995838         2.247816         1.654014
