19
Iteration:  4554charge 0 multiplicity 1
 C        -3.162103         0.242844         2.844456
 C        -2.401826         0.027600         1.603763
 C        -3.117881        -0.421910         0.215389
 C        -2.030044        -1.263254         0.933517
 C        -0.685857        -1.257336         0.271177
 C        -0.351774         0.031717        -0.401477
 O         0.430528         0.163977        -1.371266
 O        -0.737906         1.245104         0.156510
 C        -1.369664         1.172410         1.464472
 H        -4.073379         0.840180         2.768527
 H        -3.501202        -0.747310         3.202317
 H        -2.670042         0.683009         3.713823
 H        -4.154182        -0.670172         0.389130
 H        -2.763700         0.182734        -0.649905
 H        -2.459969        -2.167877         1.465292
 H         0.080826        -1.351401         1.058625
 H        -0.482576        -2.073088        -0.436261
 H        -0.599285         1.237791         2.173489
 H        -1.790817         2.171664         1.460668
