19
Iteration:  4829
 C        -3.150755         0.151779         2.825309
 C        -2.499865         0.269659         1.388048
 C        -3.206416        -0.469009         0.162017
 C        -1.999903        -1.228149         0.983959
 C        -0.529567        -1.166268         0.368847
 C        -0.292432         0.059526        -0.382014
 O         0.231003         0.056884        -1.405006
 O        -0.625076         1.264016         0.285298
 C        -1.345498         1.122250         1.407614
 H        -3.604841         1.050525         3.135685
 H        -3.966328        -0.519834         2.935863
 H        -2.515528        -0.005795         3.657407
 H        -4.154672        -0.894351         0.252334
 H        -3.007110        -0.152719        -0.858407
 H        -2.290545        -2.077269         1.542622
 H         0.225242        -1.289511         1.202217
 H        -0.459655        -2.061692        -0.225822
 H        -0.788132         0.778129         2.367956
 H        -1.605207         2.202608         1.742430
