19
Iteration:  3268
 C        -3.263195         0.196421         2.849712
 C        -2.475055         0.029831         1.540184
 C        -3.043572        -0.425715         0.298817
 C        -1.890168        -1.266809         0.998773
 C        -0.450667        -1.268614         0.378249
 C        -0.216716         0.080335        -0.369088
 O         0.395776         0.128806        -1.393459
 O        -0.947580         1.263806         0.074255
 C        -1.451719         1.231007         1.380006
 H        -4.232063         0.665615         2.412731
 H        -3.490458        -0.693283         3.488233
 H        -2.737076         0.945069         3.434117
 H        -4.036394        -0.738066         0.438681
 H        -2.868796         0.202928        -0.632316
 H        -2.214480        -2.210477         1.468306
 H         0.306052        -1.631941         1.066850
 H        -0.378585        -2.019570        -0.475924
 H        -0.704678         1.198932         2.152818
 H        -2.087107         2.118862         1.718082
