19
Iteration:    12charge 0 multiplicity 1
 C        -3.255906         0.196676         2.787597
 C        -2.443831         0.146243         1.534514
 C        -3.003535        -0.374181         0.226695
 C        -1.973840        -1.244153         0.910819
 C        -0.568609        -1.308382         0.334610
 C        -0.309893         0.077111        -0.373705
 O         0.403507        -0.027076        -1.396066
 O        -0.791220         1.294999         0.217123
 C        -1.431814         1.271865         1.510493
 H        -3.991105        -0.595615         2.704186
 H        -2.584295        -0.157607         3.582845
 H        -3.751473         1.127918         3.093743
 H        -3.988755        -0.783993         0.331738
 H        -2.844217         0.107083        -0.738338
 H        -2.362630        -2.209473         1.290004
 H         0.270159        -1.477098         1.023391
 H        -0.570596        -2.048501        -0.454534
 H        -0.766763         1.498020         2.335704
 H        -2.119044         2.107699         1.411752
