19
Iteration:  1122charge 0 multiplicity 1
 C        -3.140055         0.404199         2.828192
 C        -2.369284         0.035688         1.592314
 C        -3.317477        -0.815890         0.723723
 C        -1.787600        -1.290663         1.128076
 C        -0.756736        -1.219544        -0.032391
 C        -0.113608         0.137752        -0.401319
 O         0.622701         0.179457        -1.315568
 O        -0.496646         1.261969         0.443110
 C        -1.961663         1.249031         0.831497
 H        -3.906013         1.219067         2.533140
 H        -3.764296        -0.439735         3.259644
 H        -2.501787         0.877965         3.668225
 H        -4.218829        -1.222881         1.043406
 H        -3.358489        -0.347750        -0.254225
 H        -1.755120        -2.140809         1.788196
 H        -0.010776        -1.848818         0.335439
 H        -1.163826        -1.641159        -0.898103
 H        -2.090028         2.187034         1.400622
 H        -2.625340         1.324521        -0.051520
