19
Iteration:    67charge 0 multiplicity 1
 C        -3.426365         0.120295         2.644590
 C        -2.498357         0.180107         1.466364
 C        -3.080695        -0.514343         0.206369
 C        -1.890376        -1.169619         0.917605
 C        -0.441682        -1.144511         0.548168
 C        -0.270096         0.021217        -0.430231
 O        -0.024396         0.086644        -1.617327
 O        -0.419718         1.204692         0.369056
 C        -1.346863         1.216034         1.554605
 H        -4.384626        -0.142583         2.399483
 H        -3.152066        -0.455989         3.529794
 H        -3.503477         1.175971         2.933999
 H        -4.053996        -0.863915         0.302455
 H        -2.898516        -0.135562        -0.814178
 H        -2.080582        -2.010138         1.663019
 H         0.088682        -0.745083         1.433354
 H         0.019287        -2.095052         0.507655
 H        -0.719004         0.869677         2.327717
 H        -1.522312         2.266760         1.678314
