19
Iteration:  2423
 C        -3.219008         0.239560         2.995036
 C        -2.538084         0.084542         1.626970
 C        -3.125881        -0.666591         0.503075
 C        -1.766466        -1.168936         1.048565
 C        -0.473389        -1.251458         0.247483
 C        -0.104143         0.019420        -0.382002
 O         0.571777         0.230236        -1.385864
 O        -0.854468         1.147660         0.032802
 C        -1.846472         1.315480         1.118945
 H        -4.181059         0.877730         2.815967
 H        -3.677200        -0.661129         3.466872
 H        -2.490356         0.752191         3.680413
 H        -4.079068        -1.234192         0.679302
 H        -3.208966        -0.020914        -0.449916
 H        -1.911092        -2.134249         1.512440
 H         0.314588        -1.449164         0.947634
 H        -0.426099        -1.966647        -0.531981
 H        -1.214195         1.835252         1.919584
 H        -2.477354         2.125668         0.598498
