19
Iteration:  3018
 C        -3.156497         0.123488         2.820510
 C        -2.477696        -0.018335         1.522949
 C        -3.118534        -0.710268         0.347920
 C        -1.851071        -1.176856         1.025390
 C        -0.419181        -1.063395         0.486771
 C        -0.217155         0.113919        -0.348055
 O         0.313923         0.079810        -1.405369
 O        -0.765491         1.290109         0.102347
 C        -1.699040         1.341772         1.189826
 H        -4.211768         0.445907         2.641150
 H        -3.041264        -0.850961         3.330895
 H        -2.702457         0.866581         3.454474
 H        -4.076455        -1.253858         0.435734
 H        -3.028659        -0.272221        -0.656144
 H        -1.852515        -2.101213         1.579499
 H         0.239969        -0.909997         1.421642
 H        -0.043767        -1.962838        -0.126814
 H        -1.131160         1.618758         2.112574
 H        -2.422036         2.214546         0.995165
