19
Iteration:   387
 C        -2.835967         0.054817         2.914998
 C        -2.611120         0.151358         1.479402
 C        -3.317937        -0.713697         0.414873
 C        -2.003752        -1.140547         0.950079
 C        -0.749197        -1.233400         0.188928
 C        -0.155686         0.086019        -0.307197
 O         0.778014         0.015754        -1.088041
 O        -0.778792         1.336980         0.000396
 C        -1.781469         1.460056         1.149306
 H        -2.294168        -0.572312         3.517816
 H        -2.708500         1.107539         3.304507
 H        -3.870499        -0.141489         3.250976
 H        -4.277548        -1.199345         0.778208
 H        -3.460490        -0.405878        -0.605763
 H        -2.171441        -1.891640         1.732184
 H        -0.006074        -1.608134         0.830502
 H        -0.792640        -1.845539        -0.700778
 H        -1.233574         1.785490         1.997964
 H        -2.462589         2.191968         0.701465
