19
Iteration:  1055
 C        -2.586455         0.220894         2.928780
 C        -2.569333         0.130784         1.435641
 C        -3.474940        -0.883000         0.760235
 C        -1.987653        -1.156186         0.947608
 C        -0.796578        -1.202172        -0.026194
 C        -0.168160         0.111216        -0.256623
 O         0.862650         0.179633        -0.949994
 O        -0.696862         1.262349         0.326132
 C        -2.093501         1.348706         0.551356
 H        -3.508805         0.689933         3.357728
 H        -2.601147        -0.850912         3.283784
 H        -1.645645         0.789272         3.265908
 H        -4.223149        -1.294482         1.438143
 H        -3.769631        -0.654464        -0.269083
 H        -1.673668        -1.765085         1.821999
 H         0.001512        -1.720697         0.422643
 H        -0.964141        -1.613998        -0.994132
 H        -2.293756         2.321968         0.903855
 H        -2.603724         1.226908        -0.428239
