19
Iteration:    33charge 0 multiplicity 1
 C        -3.341790         0.096754         2.745269
 C        -2.398097         0.063558         1.552312
 C        -2.876609        -0.352550         0.181309
 C        -1.924553        -1.181864         0.972572
 C        -0.538624        -1.261903         0.415818
 C        -0.267228         0.039985        -0.281482
 O         0.116738         0.010091        -1.460293
 O        -0.665841         1.269426         0.207291
 C        -1.460410         1.293367         1.436973
 H        -4.363115        -0.203779         2.480872
 H        -3.063044        -0.370177         3.647624
 H        -3.397557         1.150921         2.929447
 H        -3.895509        -0.578438        -0.061634
 H        -2.356447         0.196678        -0.609258
 H        -2.154153        -2.051794         1.524314
 H         0.184894        -1.305943         1.250496
 H        -0.494522        -2.064377        -0.333886
 H        -0.795148         1.186309         2.250619
 H        -1.958598         2.233305         1.584190
