19
Iteration:  1874charge 0 multiplicity 1
 C        -2.956196         0.079168         2.946240
 C        -2.614045         0.173193         1.484822
 C        -3.296487        -0.741874         0.371349
 C        -1.987753        -1.198813         1.035605
 C        -0.553938        -1.040740         0.499832
 C        -0.166106         0.071146        -0.423077
 O         0.645036         0.145235        -1.364682
 O        -0.830767         1.166862         0.018888
 C        -1.724783         1.372785         1.126177
 H        -3.463106         0.985609         3.283458
 H        -3.641261        -0.783472         3.117767
 H        -2.027345         0.054885         3.584849
 H        -4.012281        -1.588273         0.645146
 H        -3.366072        -0.477153        -0.692151
 H        -2.050054        -1.962499         1.831110
 H        -0.017383        -0.744374         1.340691
 H        -0.082775        -1.898104         0.094179
 H        -1.202405         1.711485         2.081985
 H        -2.335789         2.168700         0.632070
