19
Iteration:  2536
 C        -3.277950         0.120100         2.762787
 C        -2.436446         0.001740         1.607103
 C        -2.944131        -0.399163         0.306416
 C        -1.790188        -1.188084         0.923393
 C        -0.325655        -1.050362         0.640527
 C        -0.173692         0.071985        -0.375788
 O         0.129233        -0.072081        -1.571324
 O        -0.801098         1.217123         0.102891
 C        -1.656171         1.307980         1.343984
 H        -4.177744         0.828184         2.700174
 H        -3.803746        -0.794157         3.135759
 H        -2.658439         0.366726         3.653490
 H        -3.873849        -0.985289         0.247713
 H        -2.750488         0.075943        -0.561985
 H        -2.101134        -2.087407         1.528188
 H         0.049114        -0.893727         1.648446
 H         0.142443        -1.987621         0.258009
 H        -1.075805         1.803079         2.177677
 H        -2.514801         2.013358         1.082673
