19
Iteration:  2727charge 0 multiplicity 1
 C        -2.997952         0.225104         3.069381
 C        -2.448316         0.044359         1.610288
 C        -3.156704        -0.581073         0.407168
 C        -1.951975        -1.230732         0.865584
 C        -0.545039        -1.203066         0.325422
 C        -0.154457         0.034408        -0.378684
 O         0.735137         0.264700        -1.207019
 O        -1.008904         1.073350        -0.027873
 C        -1.857963         1.361290         1.059290
 H        -3.794693         0.937076         3.142737
 H        -3.456371        -0.720376         3.379668
 H        -2.048160         0.343990         3.633784
 H        -4.171787        -1.229234         0.518174
 H        -3.313712         0.037139        -0.455707
 H        -2.160697        -2.158737         1.406835
 H         0.131382        -1.172149         1.234308
 H        -0.374685        -2.136618        -0.170317
 H        -1.180735         1.915914         1.733461
 H        -2.658717         2.007328         0.718843
