19
Iteration:  4711charge 0 multiplicity 1
 C        -3.060459         0.155204         2.864659
 C        -2.481311         0.110099         1.509319
 C        -3.282598        -0.439678         0.328859
 C        -2.107724        -1.247826         0.811655
 C        -0.707919        -1.208323         0.289364
 C        -0.212570         0.130673        -0.359474
 O         0.553300         0.061145        -1.306739
 O        -0.783886         1.271798         0.053060
 C        -1.357140         1.162685         1.480911
 H        -3.599288         1.175932         2.950763
 H        -3.795098        -0.696285         3.117095
 H        -2.234670         0.097391         3.677629
 H        -4.246414        -0.774758         0.606497
 H        -3.312296         0.001919        -0.652966
 H        -2.421105        -1.931612         1.529386
 H        -0.042181        -1.371156         1.137699
 H        -0.403561        -1.916280        -0.474532
 H        -0.664341         1.007891         2.291078
 H        -1.835039         2.162859         1.652420
