19
Iteration:   315
 C        -2.883743         0.281585         3.042323
 C        -2.495955         0.084594         1.578381
 C        -3.307667        -0.627818         0.534633
 C        -1.966206        -1.212143         0.863882
 C        -0.875183        -1.249810        -0.204910
 C        -0.199077         0.022673        -0.306933
 O         0.908308         0.135779        -0.836189
 O        -0.849266         1.172482        -0.037054
 C        -1.751514         1.342410         1.117742
 H        -2.704315         1.417346         3.312490
 H        -3.947778         0.110457         3.220383
 H        -2.319290        -0.293717         3.772750
 H        -4.299827        -1.126892         0.605936
 H        -3.382744        -0.030742        -0.366214
 H        -2.065519        -2.019941         1.496745
 H        -0.125121        -2.015723         0.048552
 H        -1.381183        -1.471013        -1.194503
 H        -1.199024         1.925418         1.908123
 H        -2.513699         1.906841         0.568938
