19
Iteration:  2568
 C        -3.220673         0.043123         2.754424
 C        -2.554284         0.123386         1.397171
 C        -2.971726        -0.681884         0.215760
 C        -1.901341        -1.214574         1.102725
 C        -0.459849        -1.127885         0.664234
 C        -0.335985         0.106414        -0.348008
 O         0.154289         0.006885        -1.430204
 O        -0.727488         1.415290         0.018146
 C        -1.416699         1.381625         1.335531
 H        -4.090985         0.710995         3.182512
 H        -3.480184        -1.005560         3.057806
 H        -2.401593         0.374440         3.419915
 H        -3.826439        -1.351479         0.310047
 H        -2.818756        -0.445731        -0.759647
 H        -2.091996        -2.088618         1.796287
 H         0.108529        -1.071720         1.542215
 H        -0.145791        -1.992137         0.059270
 H        -0.602814         1.201003         2.087247
 H        -1.926223         2.397103         1.311385
