19
Iteration:  2939
 C        -3.333039         0.276647         2.724408
 C        -2.387534        -0.028905         1.514526
 C        -2.844325        -0.683038         0.294863
 C        -1.732343        -1.303138         1.171539
 C        -0.312311        -1.272798         0.549903
 C        -0.365645         0.095322        -0.383718
 O         0.251023         0.170974        -1.412099
 O        -1.054623         1.344246        -0.006529
 C        -1.531895         1.280491         1.328580
 H        -3.512414         1.412265         2.790738
 H        -4.373478        -0.004701         2.609735
 H        -2.977391         0.051713         3.698200
 H        -3.730935        -1.331413         0.236330
 H        -2.543487        -0.083681        -0.559827
 H        -2.038014        -2.162222         1.746232
 H         0.502620        -1.084332         1.324106
 H        -0.073969        -2.008517        -0.279593
 H        -0.791391         1.460314         2.107537
 H        -2.292454         2.167141         1.505288
