19
Iteration:  2273charge 0 multiplicity 1
 C        -3.124060         0.067082         2.850575
 C        -2.499732         0.143512         1.493339
 C        -3.162476        -0.751511         0.444151
 C        -1.858936        -1.192313         1.193909
 C        -0.629854        -1.087949         0.409991
 C        -0.273541         0.129126        -0.439662
 O         0.628515         0.189516        -1.271823
 O        -0.917548         1.278606        -0.141954
 C        -1.603188         1.260112         1.177152
 H        -3.525562         1.066273         3.160529
 H        -3.998120        -0.615213         2.853040
 H        -2.644642        -0.251944         3.756964
 H        -4.111321        -1.288465         0.701519
 H        -2.837629        -0.574239        -0.554299
 H        -1.828010        -1.777046         2.100502
 H         0.239364        -1.426565         1.133427
 H        -0.753582        -2.021706        -0.274945
 H        -0.721422         1.343192         1.956209
 H        -2.135676         2.285235         1.110631
