19
Iteration:   907
 C        -2.124649         0.372272         2.895862
 C        -2.398318         0.069352         1.402193
 C        -3.539285        -0.863537         0.981251
 C        -2.022549        -1.221557         0.691478
 C        -1.043983        -1.059740        -0.515278
 C        -0.197471         0.072956        -0.202180
 O         1.034115         0.203095        -0.090390
 O        -0.923890         1.220207        -0.033455
 C        -2.256554         1.206770         0.546224
 H        -3.030681         0.555237         3.449245
 H        -1.631517        -0.482776         3.304463
 H        -1.437114         1.161948         2.985226
 H        -3.961338        -1.650884         1.612711
 H        -4.162397        -0.545581         0.211567
 H        -1.759479        -2.112487         1.155815
 H        -0.386295        -2.020923        -0.516439
 H        -1.607823        -0.954310        -1.522209
 H        -2.599968         2.232165         1.000472
 H        -2.941471         1.167816        -0.365594
