19
Iteration:  4144
 C        -3.316643         0.070988         2.832179
 C        -2.412777         0.125821         1.585383
 C        -3.124479        -0.274131         0.341929
 C        -2.018656        -1.207395         0.802334
 C        -0.676265        -1.321602         0.304058
 C        -0.238665         0.004107        -0.407173
 O         0.371594         0.076674        -1.455034
 O        -0.607342         1.231160         0.251960
 C        -1.354812         1.336036         1.471563
 H        -3.741936        -0.947196         2.809114
 H        -2.531461         0.126869         3.666207
 H        -4.106450         0.847243         2.910308
 H        -4.147459        -0.541998         0.377933
 H        -2.982236         0.093471        -0.668399
 H        -2.407756        -2.103077         1.382828
 H         0.005499        -1.545308         1.092964
 H        -0.509504        -2.045621        -0.475550
 H        -0.800962         1.244693         2.484444
 H        -2.053209         2.179498         1.392638
