19
Iteration:  3455
 C        -3.151369         0.265363         2.959662
 C        -2.462279         0.077921         1.625645
 C        -3.112090        -0.323025         0.303274
 C        -2.005118        -1.244215         0.787153
 C        -0.619440        -1.333895         0.182889
 C        -0.170383         0.004018        -0.382751
 O         0.453080         0.141527        -1.369664
 O        -0.788317         1.141486         0.152161
 C        -1.519187         1.228486         1.442854
 H        -2.784228         1.069176         3.651137
 H        -4.241650         0.354510         2.720136
 H        -3.170981        -0.649765         3.540744
 H        -4.129565        -0.581219         0.186667
 H        -2.810507         0.331640        -0.544923
 H        -2.362692        -2.036022         1.471745
 H         0.099946        -1.526481         1.102724
 H        -0.545441        -2.215093        -0.485756
 H        -0.829149         1.436064         2.335268
 H        -2.142575         2.224821         1.361367
