19
Iteration:  4464
 C        -3.132687         0.208759         2.818452
 C        -2.461093         0.044129         1.519365
 C        -3.035735        -0.429629         0.147838
 C        -2.009370        -1.270980         0.860724
 C        -0.563638        -1.233031         0.393270
 C        -0.227101         0.107689        -0.278951
 O         0.187454         0.060805        -1.421846
 O        -0.676624         1.299523         0.231745
 C        -1.475170         1.210414         1.430585
 H        -2.909333         1.322677         3.080665
 H        -4.217468         0.082022         2.990947
 H        -2.593466        -0.214531         3.702336
 H        -4.098559        -0.899622         0.142305
 H        -2.696830         0.139596        -0.744141
 H        -2.312809        -2.271998         1.213873
 H         0.164989        -1.423208         1.238339
 H        -0.450854        -2.133701        -0.252326
 H        -0.924029         0.911618         2.258063
 H        -2.044579         2.112025         1.601087
