19
Iteration:  3868
 C        -3.038117         0.312677         2.926179
 C        -2.443660         0.085963         1.527992
 C        -3.196788        -0.256720         0.239918
 C        -2.090980        -1.243399         0.877293
 C        -0.671358        -1.363213         0.190026
 C        -0.155495         0.023101        -0.355286
 O         0.502307         0.142032        -1.339149
 O        -0.777176         1.094500         0.203670
 C        -1.518478         1.179181         1.445558
 H        -3.974605        -0.120990         3.310245
 H        -2.398254         0.208416         3.824800
 H        -3.344575         1.383965         2.888298
 H        -4.133606        -0.741165         0.299543
 H        -3.138237         0.514295        -0.588270
 H        -2.469921        -2.200750         1.120127
 H         0.201066        -1.805339         0.818968
 H        -0.736885        -1.948439        -0.747655
 H        -0.862390         1.086046         2.337909
 H        -2.123858         2.019422         1.572061
