19
Iteration:  4285
 C        -3.139626         0.013014         2.913286
 C        -2.398695         0.164902         1.568204
 C        -3.120068        -0.299409         0.271256
 C        -2.117134        -1.171490         0.948520
 C        -0.760894        -1.355265         0.135557
 C        -0.202828         0.001096        -0.371256
 O         0.603431         0.127440        -1.259153
 O        -0.790289         1.205434         0.083650
 C        -1.469118         1.334365         1.407334
 H        -3.968617        -0.683369         3.019535
 H        -2.409160        -0.325032         3.734338
 H        -3.514435         0.898533         3.442183
 H        -4.180012        -0.426893         0.300124
 H        -2.801352         0.228376        -0.555384
 H        -2.376317        -2.055707         1.547815
 H        -0.017833        -1.774152         0.854983
 H        -0.877822        -2.029836        -0.701716
 H        -0.860051         1.542914         2.325488
 H        -2.258665         2.091651         1.251102
