19
Iteration:  1321
 C        -3.284312         0.345084         2.827381
 C        -2.491935         0.076540         1.512892
 C        -3.070955        -0.800192         0.415022
 C        -1.786450        -1.093573         1.183253
 C        -0.453095        -1.226435         0.376184
 C        -0.121832         0.020483        -0.358266
 O         0.301682         0.178437        -1.497547
 O        -0.667460         1.187708         0.130231
 C        -1.739942         1.270554         1.194706
 H        -3.619623         1.387606         3.035075
 H        -4.244220        -0.169579         2.718080
 H        -2.704004         0.131783         3.722097
 H        -4.038581        -1.145454         0.719159
 H        -3.099167        -0.323710        -0.622133
 H        -2.015165        -2.016545         1.705920
 H         0.336305        -1.571139         1.010485
 H        -0.553263        -1.936234        -0.397506
 H        -1.238380         1.609590         2.209281
 H        -2.344410         2.101165         0.846835
