19
Iteration:   663
 C        -3.021632         0.084504         2.913707
 C        -2.510235         0.189487         1.451796
 C        -3.212539        -0.637090         0.386487
 C        -1.912209        -1.173294         1.048967
 C        -0.469396        -1.151637         0.421062
 C        -0.210776         0.097474        -0.317147
 O         0.659008         0.129822        -1.136674
 O        -1.134376         1.175307        -0.205624
 C        -1.607940         1.348249         1.175871
 H        -3.297857         1.054493         3.354277
 H        -3.889459        -0.593610         2.857282
 H        -2.252468        -0.296426         3.526296
 H        -4.215474        -1.168429         0.669683
 H        -3.239167        -0.271750        -0.656750
 H        -2.050295        -2.001849         1.876187
 H         0.254796        -1.374094         1.181496
 H        -0.374186        -2.041473        -0.305540
 H        -0.714331         1.370925         1.767120
 H        -2.047728         2.389289         1.119359
