19
Iteration:  1180charge 0 multiplicity 1
 C        -2.997088         0.309993         2.804081
 C        -2.520081         0.131763         1.350561
 C        -3.222340        -0.850356         0.529382
 C        -1.869990        -1.198284         1.138340
 C        -0.677865        -1.172314         0.258100
 C        -0.217261         0.103214        -0.344921
 O         0.511120         0.114129        -1.288501
 O        -0.588246         1.225724         0.261996
 C        -1.849904         1.354732         1.006442
 H        -3.477348         1.328258         3.054564
 H        -3.781919        -0.467359         2.987200
 H        -2.108546         0.162718         3.458194
 H        -4.126653        -1.313582         0.992260
 H        -3.257599        -0.729906        -0.546503
 H        -1.870781        -2.007113         1.905906
 H         0.217065        -1.613705         0.763937
 H        -0.801675        -1.762293        -0.662360
 H        -1.546068         1.860716         1.965615
 H        -2.510831         1.998872         0.494586
