19
Iteration:  3623
 C        -3.074670         0.067711         2.823819
 C        -2.515506         0.177437         1.482367
 C        -3.239166        -0.373851         0.200502
 C        -2.129780        -1.135282         0.951429
 C        -0.763991        -1.250472         0.310520
 C        -0.328539         0.095922        -0.401316
 O         0.423366         0.020458        -1.313988
 O        -0.580624         1.270656         0.181644
 C        -1.306649         1.173303         1.452489
 H        -3.827206        -0.672765         3.002599
 H        -2.193963        -0.163987         3.464725
 H        -3.324701         1.005683         3.342112
 H        -4.328428        -0.357801         0.091052
 H        -2.937702         0.090408        -0.753676
 H        -2.523323        -1.978913         1.464251
 H         0.098594        -1.459015         1.051555
 H        -0.660037        -2.142010        -0.340196
 H        -0.536153         0.849145         2.167238
 H        -1.714529         2.153657         1.676370
