19
Iteration:  2646
 C        -3.285443         0.274888         2.810761
 C        -2.464681         0.019010         1.632475
 C        -2.976310        -0.633264         0.456358
 C        -1.820625        -1.254731         1.152466
 C        -0.499649        -1.196943         0.343389
 C        -0.220995         0.088533        -0.410746
 O         0.487952         0.245807        -1.377234
 O        -0.910254         1.162236        -0.027919
 C        -1.675812         1.245948         1.243058
 H        -3.609640         1.324191         2.630715
 H        -4.066100        -0.488347         2.858979
 H        -2.726045         0.378684         3.756928
 H        -3.871178        -1.101688         0.658711
 H        -2.715614        -0.189890        -0.525862
 H        -2.075994        -2.170084         1.705782
 H         0.329993        -1.507322         0.901334
 H        -0.623515        -1.983213        -0.446483
 H        -0.924852         1.632924         1.987631
 H        -2.400001         2.091288         1.107511
