19
Iteration:   849
 C        -2.307074         0.297078         2.932420
 C        -2.536871         0.110805         1.423379
 C        -3.448842        -0.953550         0.850418
 C        -1.983959        -1.240724         0.829528
 C        -0.980540        -1.125706        -0.329763
 C        -0.183389         0.142907        -0.191821
 O         1.018736         0.148276        -0.503483
 O        -0.830851         1.340028         0.189658
 C        -2.243701         1.295514         0.495487
 H        -2.868601         1.080933         3.408236
 H        -2.404804        -0.613351         3.551049
 H        -1.297061         0.672057         3.014216
 H        -4.036633        -1.586819         1.511327
 H        -3.995838        -0.745074        -0.128809
 H        -1.682064        -2.013389         1.650275
 H        -0.403786        -2.032257        -0.359587
 H        -1.532268        -1.149055        -1.306556
 H        -2.598192         2.206444         0.949025
 H        -2.721256         1.096997        -0.461832
