19
Iteration:  4436
 C        -3.212353         0.117380         2.765607
 C        -2.448385         0.179815         1.515661
 C        -3.161236        -0.481780         0.237873
 C        -2.042481        -1.201517         0.953903
 C        -0.593407        -1.191616         0.387420
 C        -0.270812         0.100127        -0.414097
 O         0.305663         0.128787        -1.452077
 O        -0.635575         1.206826         0.233971
 C        -1.355107         1.198187         1.425811
 H        -3.515247         1.064759         3.183274
 H        -4.153032        -0.391271         2.864933
 H        -2.691990        -0.150559         3.685402
 H        -4.132087        -0.830039         0.412993
 H        -2.819680        -0.322832        -0.763738
 H        -2.248539        -2.082672         1.599822
 H         0.145357        -1.284793         1.188508
 H        -0.491724        -2.101525        -0.183629
 H        -0.735979         0.927958         2.361116
 H        -1.835136         2.196202         1.554666
