19
Iteration:  2663charge 0 multiplicity 1
 C        -3.201879         0.190820         2.872907
 C        -2.470395         0.141841         1.467589
 C        -3.106330        -0.776774         0.375129
 C        -1.807095        -1.173155         1.143312
 C        -0.560644        -1.260202         0.342939
 C        -0.296612         0.081516        -0.448718
 O         0.564611         0.174310        -1.269493
 O        -0.950948         1.267688        -0.020978
 C        -1.587983         1.367217         1.226770
 H        -3.868856         1.014477         3.202915
 H        -3.748686        -0.759494         3.042235
 H        -2.495005         0.252759         3.714741
 H        -4.099202        -1.349168         0.529615
 H        -3.009775        -0.459466        -0.637585
 H        -1.907779        -1.957682         1.918760
 H         0.397210        -1.241431         1.001726
 H        -0.483899        -2.113157        -0.316241
 H        -0.869367         1.392676         2.044720
 H        -2.126737         2.336512         1.267170
