19
Iteration:  4985charge 0 multiplicity 1
 C        -3.246000         0.102373         2.976293
 C        -2.417307         0.151782         1.623674
 C        -3.150262        -0.396625         0.309427
 C        -2.010552        -1.156334         0.998592
 C        -0.678713        -1.323479         0.171015
 C        -0.222178        -0.026460        -0.403449
 O         0.559676         0.167141        -1.352135
 O        -0.733325         1.156721         0.070290
 C        -1.475723         1.345454         1.380778
 H        -3.658038         1.055351         3.030582
 H        -4.008046        -0.657367         2.866818
 H        -2.598006        -0.037752         3.815191
 H        -4.209088        -0.599299         0.461308
 H        -3.088262         0.137139        -0.676751
 H        -2.058334        -2.147110         1.485995
 H         0.087610        -1.871280         0.823266
 H        -0.943308        -2.153032        -0.555258
 H        -0.935810         1.590900         2.277618
 H        -2.153562         2.178827         1.191958
