19
Iteration:  4778
 C        -3.272388         0.156623         2.780482
 C        -2.385635         0.107689         1.635069
 C        -3.118250        -0.317937         0.390099
 C        -1.940956        -1.217566         0.926629
 C        -0.600027        -1.249630         0.193109
 C        -0.274057         0.025698        -0.389423
 O         0.367922         0.112163        -1.437442
 O        -0.621006         1.143262         0.225837
 C        -1.512393         1.208397         1.420695
 H        -3.896881         1.137371         2.709451
 H        -4.079167        -0.596984         3.010087
 H        -2.769251         0.368588         3.793411
 H        -4.134758        -0.735493         0.399136
 H        -2.979827         0.360479        -0.441420
 H        -2.237437        -2.103858         1.476617
 H         0.110375        -1.531041         0.941540
 H        -0.630410        -2.088298        -0.529248
 H        -0.800899         1.417139         2.203246
 H        -2.041900         2.157417         1.230642
