19
Iteration:   227
 C        -2.899798         0.172978         3.112770
 C        -2.487851         0.031567         1.601208
 C        -3.224709        -0.315843         0.329473
 C        -2.098901        -1.193075         0.917277
 C        -0.828626        -1.274223         0.112005
 C        -0.141132         0.029171        -0.335223
 O         0.845912         0.142900        -1.031260
 O        -0.888818         1.146554        -0.043334
 C        -1.705701         1.255384         1.142431
 H        -3.993067        -0.301563         3.049209
 H        -2.250282        -0.355585         3.785268
 H        -3.009813         1.221470         3.372916
 H        -4.239714        -0.737549         0.236542
 H        -2.913330         0.360472        -0.467136
 H        -2.417266        -2.110922         1.149965
 H        -0.039821        -1.907235         0.442975
 H        -1.131646        -1.735350        -0.878043
 H        -0.984250         1.492445         1.975735
 H        -2.444785         2.006153         0.865394
