19
Iteration:   319
 C        -2.869628         0.287797         3.062104
 C        -2.483256         0.114792         1.570184
 C        -3.308366        -0.585035         0.549694
 C        -1.979171        -1.226121         0.842048
 C        -0.838858        -1.267021        -0.219761
 C        -0.182230         0.036327        -0.292720
 O         0.895254         0.133880        -0.845951
 O        -0.861464         1.159684        -0.011128
 C        -1.796771         1.329694         1.093212
 H        -2.673143         1.317642         3.326937
 H        -4.035133         0.151171         3.057309
 H        -2.356321        -0.427739         3.819378
 H        -4.267037        -0.989617         0.760598
 H        -3.398560        -0.019828        -0.402867
 H        -2.000552        -2.181945         1.527207
 H        -0.082983        -2.062328         0.087222
 H        -1.263101        -1.535224        -1.163051
 H        -1.191356         1.907791         1.841174
 H        -2.520482         1.892217         0.505289
