19
Iteration:  2188charge 0 multiplicity 1
 C        -3.270982         0.132964         2.775849
 C        -2.521739         0.144366         1.456209
 C        -2.975213        -0.768900         0.286339
 C        -1.773650        -1.153948         1.206070
 C        -0.499366        -1.186222         0.443569
 C        -0.225404         0.114443        -0.373514
 O         0.210594         0.058607        -1.490786
 O        -0.684595         1.295846         0.173040
 C        -1.627569         1.402356         1.278036
 H        -4.347762         0.133464         2.616626
 H        -3.125710        -0.870871         3.235522
 H        -2.892387         0.951603         3.418906
 H        -3.950390        -1.346494         0.406887
 H        -2.825618        -0.316458        -0.663283
 H        -1.925277        -2.114358         1.747743
 H         0.293647        -1.140623         1.103421
 H        -0.380286        -2.077694        -0.223365
 H        -1.057023         1.646004         2.173699
 H        -2.242463         2.285074         1.281066
