19
Iteration:  3594
 C        -3.228294         0.108977         2.867380
 C        -2.417918         0.137721         1.579262
 C        -3.174063        -0.294119         0.349429
 C        -2.079099        -1.144548         0.885287
 C        -0.718452        -1.296489         0.218480
 C        -0.221012         0.062508        -0.347901
 O         0.520200         0.011226        -1.335488
 O        -0.773243         1.229956         0.089050
 C        -1.316328         1.223253         1.446996
 H        -4.349842        -0.052227         2.715224
 H        -2.792991        -0.674865         3.495563
 H        -3.113724         1.033885         3.486040
 H        -4.143261        -0.495496         0.705770
 H        -3.115062         0.321609        -0.634928
 H        -2.529354        -2.140753         1.165194
 H         0.049371        -1.679768         0.836472
 H        -0.792433        -1.989119        -0.660482
 H        -0.394282         1.067577         2.103793
 H        -1.666035         2.219303         1.630004
