19
Iteration:  3819charge 0 multiplicity 1
 C        -3.222204         0.009858         2.831329
 C        -2.449824         0.225998         1.558951
 C        -3.235651        -0.342432         0.300321
 C        -2.140452        -1.150954         0.984715
 C        -0.694892        -1.201899         0.301848
 C        -0.264465         0.086504        -0.411127
 O         0.456916        -0.057114        -1.394259
 O        -0.575086         1.295138         0.128562
 C        -1.326988         1.225208         1.409006
 H        -4.260639        -0.299582         2.884962
 H        -2.686091        -0.836024         3.309044
 H        -3.232602         0.798224         3.587803
 H        -4.331364        -0.430149         0.435960
 H        -3.014815        -0.112782        -0.748522
 H        -2.222634        -2.058295         1.650988
 H         0.147731        -1.313555         0.929224
 H        -0.706640        -2.015764        -0.420376
 H        -0.721585         1.026156         2.289611
 H        -1.823177         2.246899         1.514339
