19
Iteration:  1253charge 0 multiplicity 1
 C        -3.193947         0.124204         2.882449
 C        -2.496566         0.228779         1.526678
 C        -3.091893        -0.576219         0.338133
 C        -1.961471        -1.148911         1.048036
 C        -0.452050        -1.193036         0.505167
 C        -0.224312         0.085965        -0.349724
 O         0.535836         0.066031        -1.274472
 O        -1.092287         1.180852        -0.194746
 C        -1.454267         1.324657         1.235397
 H        -4.194181         0.434640         3.034502
 H        -3.195264        -0.952375         3.006203
 H        -2.555249         0.571627         3.621968
 H        -4.071015        -0.884169         0.763691
 H        -3.197033        -0.326164        -0.665157
 H        -1.961122        -2.027107         1.717144
 H         0.244074        -1.196189         1.340827
 H        -0.257278        -2.099542        -0.039492
 H        -0.536868         1.029210         1.784904
 H        -1.651932         2.396115         1.583589
