19
Iteration:  3013charge 0 multiplicity 1
 C        -3.216660         0.117239         2.851957
 C        -2.494770        -0.009232         1.534675
 C        -3.131117        -0.745948         0.349483
 C        -1.840076        -1.190444         1.003243
 C        -0.428404        -1.031908         0.446656
 C        -0.205732         0.135961        -0.342311
 O         0.314037         0.074671        -1.442265
 O        -0.742445         1.278728         0.109714
 C        -1.635902         1.337386         1.198236
 H        -4.259396         0.459732         2.725334
 H        -3.315307        -0.879529         3.316925
 H        -2.754907         0.813334         3.605397
 H        -4.032776        -1.315299         0.508716
 H        -2.994497        -0.354897        -0.681073
 H        -1.722692        -1.971639         1.809204
 H         0.066044        -0.780781         1.349950
 H        -0.056138        -1.935317         0.046630
 H        -1.136803         1.749267         2.086025
 H        -2.270566         2.239517         0.929972
