19
Iteration:  4422
 C        -3.336808         0.083577         2.816220
 C        -2.472933         0.122851         1.545432
 C        -3.119760        -0.436654         0.326518
 C        -1.992021        -1.179487         1.047371
 C        -0.682537        -1.168621         0.333470
 C        -0.214444         0.016584        -0.442246
 O         0.386154         0.132683        -1.539928
 O        -0.612565         1.216625         0.184923
 C        -1.389909         1.231230         1.489741
 H        -3.859095         1.043238         2.759517
 H        -3.907568        -0.792747         2.536810
 H        -2.575566        -0.116614         3.611126
 H        -4.216469        -0.744746         0.507565
 H        -2.991446         0.115520        -0.623130
 H        -2.207730        -2.100775         1.640142
 H        -0.005540        -1.202864         1.155031
 H        -0.445883        -2.082328        -0.241995
 H        -0.615970         1.027018         2.304590
 H        -1.810602         2.271252         1.515295
