19
Iteration:  1401charge 0 multiplicity 1
 C        -3.183924         0.341431         2.935375
 C        -2.485397         0.094986         1.532136
 C        -3.081831        -0.689710         0.337971
 C        -1.884723        -1.164701         1.033814
 C        -0.437333        -1.292915         0.425324
 C        -0.210365        -0.057216        -0.436440
 O         0.374052         0.208316        -1.494314
 O        -0.679093         1.148888         0.273498
 C        -1.780744         1.376899         1.090340
 H        -4.134676         0.915552         2.779383
 H        -3.279160        -0.610459         3.490087
 H        -2.448460         0.857212         3.584815
 H        -3.935833        -1.289220         0.662485
 H        -3.059383        -0.374104        -0.684980
 H        -2.098978        -1.956930         1.748003
 H         0.109226        -1.140243         1.270963
 H        -0.182499        -2.243142        -0.066371
 H        -1.453326         2.003027         2.000953
 H        -2.621708         1.853314         0.608808
