19
Iteration:    21charge 0 multiplicity 1
 C        -3.288243         0.163253         2.767761
 C        -2.378602         0.117556         1.541016
 C        -2.902522        -0.349357         0.175457
 C        -1.920235        -1.260956         0.931666
 C        -0.554214        -1.278029         0.336730
 C        -0.306538         0.016537        -0.372558
 O         0.276794        -0.070765        -1.409601
 O        -0.777493         1.338570         0.232389
 C        -1.498932         1.332359         1.558127
 H        -4.272657        -0.396428         2.651351
 H        -2.792416        -0.241816         3.583247
 H        -3.550364         1.160569         3.025036
 H        -3.966071        -0.711382         0.226327
 H        -2.626979         0.137805        -0.752892
 H        -2.379858        -2.093745         1.292395
 H         0.252400        -1.579642         1.050065
 H        -0.374576        -2.047646        -0.470588
 H        -0.793602         1.366238         2.344777
 H        -2.057245         2.260174         1.517776
