19
Iteration:  2737charge 0 multiplicity 1
 C        -2.996459         0.228234         2.985208
 C        -2.476431         0.069423         1.639247
 C        -3.160378        -0.551493         0.377305
 C        -1.898435        -1.164419         1.002852
 C        -0.525034        -1.309378         0.292503
 C        -0.164584         0.067386        -0.371439
 O         0.700783         0.292700        -1.171311
 O        -1.045050         1.094946        -0.063670
 C        -1.837349         1.251450         1.058370
 H        -3.504461         1.094250         3.221296
 H        -3.503755        -0.683957         3.312162
 H        -2.184203         0.401273         3.719040
 H        -4.106214        -1.256148         0.351441
 H        -3.050535         0.077164        -0.505717
 H        -2.113934        -2.046447         1.592756
 H         0.221399        -1.560190         1.023548
 H        -0.433751        -2.044210        -0.493340
 H        -1.289567         1.826175         1.860460
 H        -2.584411         1.933234         0.756539
