19
Iteration:  4705
 C        -3.049440         0.152693         2.903229
 C        -2.472900         0.105995         1.517042
 C        -3.301162        -0.414186         0.341507
 C        -2.106112        -1.296682         0.771067
 C        -0.674444        -1.183276         0.273580
 C        -0.208049         0.072588        -0.315369
 O         0.568945         0.090767        -1.321820
 O        -0.793882         1.273755         0.084293
 C        -1.397546         1.191081         1.402505
 H        -3.505461         1.095610         3.116975
 H        -3.873649        -0.404202         3.283640
 H        -2.345530         0.173623         3.687585
 H        -4.372350        -0.787181         0.452860
 H        -3.348130         0.036146        -0.680621
 H        -2.376749        -2.158198         1.482343
 H        -0.187918        -1.437711         1.262574
 H        -0.377830        -2.013598        -0.407005
 H        -0.575520         0.943448         2.180094
 H        -1.681327         2.219243         1.578367
