19
Iteration:  3090charge 0 multiplicity 1
 C        -3.198216         0.130891         2.925998
 C        -2.511681         0.057034         1.580748
 C        -3.322975        -0.691500         0.538211
 C        -1.929880        -1.248891         1.039504
 C        -0.439799        -1.176739         0.325815
 C        -0.143002         0.115673        -0.421700
 O         0.698103         0.228118        -1.292926
 O        -0.990153         1.270937        -0.178081
 C        -1.569224         1.309175         1.221416
 H        -3.899510        -0.782705         2.835829
 H        -2.596734         0.121865         3.843006
 H        -3.966162         0.977787         3.012144
 H        -4.272317        -1.101052         0.802609
 H        -3.350240        -0.218554        -0.504917
 H        -2.013820        -2.066966         1.768905
 H         0.272908        -1.115176         1.133558
 H        -0.279748        -2.062179        -0.267643
 H        -0.740061         1.006859         1.900393
 H        -1.864027         2.351526         1.368429
