19
Iteration:   838charge 0 multiplicity 1
 C        -2.397191         0.450969         2.902081
 C        -2.541905         0.046047         1.458831
 C        -3.432006        -0.979434         0.867844
 C        -1.926337        -1.227275         0.808461
 C        -1.012690        -1.167253        -0.396861
 C        -0.126843         0.122782        -0.206978
 O         0.986151         0.199470        -0.566108
 O        -0.783961         1.253834         0.267289
 C        -2.249837         1.260687         0.580053
 H        -3.028137         1.293512         3.131960
 H        -2.784876        -0.396870         3.478873
 H        -1.355980         0.514244         3.173475
 H        -3.943165        -1.589704         1.592690
 H        -4.015488        -0.752011        -0.109170
 H        -1.558216        -2.026083         1.601252
 H        -0.338141        -1.992025        -0.544068
 H        -1.522740        -0.883267        -1.362912
 H        -2.323977         2.284186         0.915488
 H        -2.867830         1.256017        -0.333532
