19
Iteration:  1824
 C        -3.279589         0.222598         2.806815
 C        -2.305227         0.090020         1.649001
 C        -2.920051        -0.675282         0.386648
 C        -1.827077        -1.232692         1.117576
 C        -0.540435        -1.185654         0.375162
 C        -0.278686         0.047509        -0.382835
 O         0.478821         0.130367        -1.328322
 O        -1.025833         1.252858        -0.074330
 C        -1.618702         1.317387         1.275814
 H        -4.117333         0.932823         2.543218
 H        -3.792578        -0.690139         3.074327
 H        -2.802009         0.689002         3.652331
 H        -3.939866        -0.753871         0.609761
 H        -2.861040        -0.320356        -0.668066
 H        -1.862432        -2.273405         1.517925
 H         0.341315        -1.367616         1.135629
 H        -0.528712        -1.985789        -0.414719
 H        -0.886758         1.562270         2.052964
 H        -2.324360         2.105601         1.087173
