19
Iteration:  2584
 C        -3.199936         0.130735         2.746824
 C        -2.490914         0.186063         1.421280
 C        -3.019286        -0.810353         0.280076
 C        -1.893334        -1.180581         1.206130
 C        -0.537930        -1.093003         0.582221
 C        -0.231787         0.138932        -0.389953
 O         0.231146         0.099293        -1.500525
 O        -0.772640         1.311216         0.067267
 C        -1.482219         1.257578         1.317797
 H        -4.052573         0.774847         2.807832
 H        -3.813230        -0.796066         2.862908
 H        -2.562415         0.136134         3.689741
 H        -4.102958        -0.990234         0.261241
 H        -2.630190        -0.626575        -0.847745
 H        -2.087655        -1.868670         1.999599
 H         0.278870        -0.943305         1.407053
 H        -0.248251        -2.005823         0.015061
 H        -0.752455         1.017895         2.108355
 H        -1.870031         2.225230         1.532639
