19
Iteration:  1534
 C        -2.962050         0.184417         2.862666
 C        -2.543620         0.074529         1.482031
 C        -3.228657        -0.683583         0.346853
 C        -1.919164        -1.211021         1.011506
 C        -0.492463        -1.170018         0.525143
 C        -0.279861         0.049888        -0.373896
 O         0.571550         0.106499        -1.275105
 O        -0.904128         1.265042        -0.025952
 C        -1.700055         1.353185         1.134594
 H        -3.177163         1.205282         3.211525
 H        -3.741304        -0.427646         3.351955
 H        -2.028826        -0.150042         3.428470
 H        -4.196727        -1.205623         0.400838
 H        -3.130286        -0.299496        -0.652394
 H        -2.159393        -2.013934         1.748205
 H         0.077469        -0.982975         1.490382
 H        -0.108872        -2.165778         0.161666
 H        -0.979972         1.892929         1.913501
 H        -2.489118         2.070287         0.775089
