19
Iteration:  1792charge 0 multiplicity 1
 C        -3.463534         0.339730         2.770860
 C        -2.488555         0.097810         1.601113
 C        -2.973174        -0.776646         0.428859
 C        -1.777213        -1.226766         1.124172
 C        -0.455867        -1.173526         0.417822
 C        -0.217050         0.070059        -0.407326
 O         0.359255         0.245290        -1.437848
 O        -0.923214         1.164208        -0.010950
 C        -1.437371         1.223557         1.300422
 H        -4.210336         1.094538         2.421776
 H        -3.898574        -0.529131         3.249861
 H        -2.867814         0.770494         3.570086
 H        -3.952518        -1.147394         0.650635
 H        -2.981472        -0.300653        -0.591369
 H        -1.788456        -2.180341         1.700461
 H         0.405631        -1.357394         1.104475
 H        -0.310516        -1.973668        -0.363799
 H        -0.613092         1.197714         2.062863
 H        -1.775256         2.260865         1.425783
