19
Iteration:  4305charge 0 multiplicity 1
 C        -3.175944         0.024026         2.917084
 C        -2.430761         0.096323         1.599673
 C        -3.248506        -0.322581         0.382786
 C        -2.115545        -1.165779         0.852731
 C        -0.706303        -1.210758         0.206908
 C        -0.243847         0.022907        -0.415337
 O         0.623732         0.108573        -1.268924
 O        -0.699253         1.223010         0.110139
 C        -1.472339         1.262515         1.328312
 H        -4.229458        -0.289282         2.771676
 H        -2.702330        -0.616826         3.699476
 H        -3.192018         0.990485         3.472272
 H        -4.182116        -0.879041         0.569184
 H        -3.152440         0.191965        -0.552564
 H        -2.348619        -2.177999         1.296785
 H         0.042859        -1.524759         1.055579
 H        -0.618854        -1.971190        -0.592019
 H        -0.656298         1.228489         2.102196
 H        -1.789244         2.303491         1.139395
