19
Iteration:  4172
 C        -3.229493         0.090621         2.906161
 C        -2.385286         0.080985         1.532446
 C        -3.021178        -0.220204         0.229181
 C        -1.992555        -1.214657         0.952483
 C        -0.777781        -1.282150         0.230253
 C        -0.321512         0.008747        -0.363228
 O         0.412986         0.114468        -1.316232
 O        -0.681640         1.228316         0.213446
 C        -1.414685         1.199849         1.392840
 H        -3.306407        -0.932980         3.333304
 H        -2.542230         0.641011         3.511885
 H        -4.160283         0.569229         2.607129
 H        -4.128047        -0.425968         0.090422
 H        -2.532359         0.094207        -0.771590
 H        -2.460346        -2.063871         1.389877
 H         0.137955        -1.808451         0.706754
 H        -0.968712        -1.859097        -0.732221
 H        -0.848682         1.205971         2.338084
 H        -1.941731         2.175421         1.504361
