19
Iteration:  2157charge 0 multiplicity 1
 C        -3.465702         0.192259         2.692735
 C        -2.453012         0.081403         1.535782
 C        -3.025227        -0.815961         0.387982
 C        -1.777882        -1.240439         1.225247
 C        -0.417427        -1.129493         0.481018
 C        -0.257063         0.094863        -0.446204
 O         0.230413         0.104593        -1.568612
 O        -0.759942         1.366590         0.100658
 C        -1.425893         1.319625         1.349920
 H        -4.363548         0.575021         2.234814
 H        -3.543409        -0.875934         3.036175
 H        -3.313023         0.819264         3.614276
 H        -4.051345        -1.183604         0.674100
 H        -2.857662        -0.336806        -0.548561
 H        -1.935156        -2.138714         1.899469
 H         0.323400        -0.906717         1.287213
 H        -0.124110        -2.026966        -0.078841
 H        -0.589247         1.247900         2.069091
 H        -1.972313         2.301584         1.459629
