19
Iteration:  3561
 C        -3.218970         0.263170         3.019493
 C        -2.469460         0.059442         1.658184
 C        -3.126731        -0.289827         0.355943
 C        -2.115080        -1.178187         0.896017
 C        -0.750435        -1.281941         0.176846
 C        -0.183355        -0.002975        -0.498524
 O         0.675013         0.209061        -1.382862
 O        -0.768217         1.049615         0.121058
 C        -1.465282         1.142913         1.388380
 H        -4.363092         0.460834         3.001469
 H        -3.117696        -0.698232         3.520599
 H        -2.683269         1.085864         3.586802
 H        -4.169027        -0.456314         0.532227
 H        -2.788051         0.423875        -0.482790
 H        -2.715210        -2.148016         0.996620
 H        -0.038633        -1.464089         0.930163
 H        -0.758497        -2.183224        -0.490994
 H        -0.706508         1.247443         2.250113
 H        -1.969666         2.073675         1.273255
