19
Iteration:  1954charge 0 multiplicity 1
 C        -3.255880         0.209979         2.856772
 C        -2.451949         0.157385         1.588735
 C        -3.199388        -0.799764         0.527334
 C        -1.837155        -1.145512         1.196223
 C        -0.648230        -1.188237         0.262539
 C        -0.197827         0.098650        -0.458772
 O         0.727424         0.282888        -1.259433
 O        -0.997288         1.146218        -0.140857
 C        -1.565366         1.289819         1.191408
 H        -4.163268         0.928643         2.883889
 H        -3.642451        -0.795544         3.120193
 H        -2.582470         0.395981         3.723099
 H        -4.150400        -1.253806         0.849526
 H        -3.200082        -0.435227        -0.520088
 H        -1.760219        -2.157027         1.782351
 H         0.192271        -1.698975         0.815647
 H        -0.745783        -1.923547        -0.551631
 H        -0.685919         1.292492         1.911327
 H        -1.834799         2.359267         1.300666
