19
Iteration:   585charge 0 multiplicity 1
 C        -3.361368         0.202463         2.648518
 C        -2.472895         0.157203         1.413972
 C        -3.000956        -0.826347         0.329783
 C        -1.781045        -1.207241         1.192488
 C        -0.402070        -1.116524         0.471892
 C        -0.320407         0.148103        -0.341855
 O         0.094754         0.046936        -1.492061
 O        -0.611060         1.336736         0.189557
 C        -1.521316         1.292915         1.314874
 H        -3.494837         1.211635         2.983868
 H        -4.423534        -0.144399         2.504862
 H        -2.939508        -0.430423         3.464308
 H        -4.011036        -1.234564         0.588526
 H        -2.734444        -0.652307        -0.768267
 H        -1.832395        -1.894761         2.038522
 H         0.366425        -1.315958         1.202409
 H        -0.274522        -1.977884        -0.272657
 H        -0.873852         1.237173         2.205528
 H        -1.967573         2.298277         1.419212
