19
Iteration:   971
 C        -2.389704         0.382307         2.837734
 C        -2.531964         0.080935         1.328208
 C        -3.338393        -1.162676         1.072907
 C        -1.773597        -1.122950         0.878780
 C        -1.256040        -0.936665        -0.537810
 C        -0.187212         0.157584        -0.299295
 O         0.971045        -0.044601        -0.288928
 O        -0.726565         1.362694         0.250406
 C        -2.259765         1.282490         0.387416
 H        -2.724196         1.345342         3.187069
 H        -2.925265        -0.404750         3.354177
 H        -1.417926         0.199012         3.236614
 H        -3.835271        -1.581128         1.913268
 H        -3.869934        -1.385672         0.183145
 H        -1.118861        -1.484287         1.611366
 H        -0.555323        -1.686368        -0.975175
 H        -2.047023        -0.727696        -1.315543
 H        -2.570035         2.242925         0.915714
 H        -2.751823         1.257490        -0.581453
