19
Iteration:  4261charge 0 multiplicity 1
 C        -3.061982         0.086992         2.911155
 C        -2.459082         0.143657         1.513415
 C        -3.154239        -0.318713         0.276216
 C        -2.039667        -1.169660         0.911844
 C        -0.756087        -1.266289         0.129037
 C        -0.248993         0.074295        -0.337465
 O         0.557529         0.057958        -1.201013
 O        -0.759827         1.197531         0.124110
 C        -1.465806         1.251821         1.377610
 H        -3.525100        -0.861234         3.185773
 H        -2.427651         0.371616         3.785569
 H        -3.926747         0.767628         3.139975
 H        -4.149921        -0.805049         0.337683
 H        -2.998179         0.430613        -0.559030
 H        -2.451146        -2.185639         1.190832
 H         0.114282        -1.798919         0.695523
 H        -1.003485        -1.841759        -0.782672
 H        -0.831379         1.045492         2.263458
 H        -2.088060         2.203100         1.481668
