19
Iteration:  1814
 C        -3.300661         0.327623         2.752445
 C        -2.376982         0.044686         1.654259
 C        -2.926352        -0.561736         0.385948
 C        -1.779012        -1.259228         1.236941
 C        -0.489233        -1.271877         0.381801
 C        -0.311193         0.032797        -0.472061
 O         0.465917         0.229754        -1.378075
 O        -1.028440         1.185837        -0.046746
 C        -1.606882         1.243358         1.342760
 H        -4.059408         0.882044         2.167279
 H        -3.728543        -0.630440         2.989457
 H        -2.997034         0.772166         3.670660
 H        -3.918795        -0.959944         0.438936
 H        -2.585245        -0.355651        -0.685039
 H        -2.063414        -2.207730         1.754168
 H         0.505067        -1.331843         0.922597
 H        -0.358254        -2.104859        -0.386093
 H        -0.784774         1.569024         2.011723
 H        -2.292301         2.088782         1.416338
