19
Iteration:   522charge 0 multiplicity 1
 C        -3.344816         0.220622         2.720626
 C        -2.450821         0.002351         1.535887
 C        -2.994050        -0.529077         0.207898
 C        -1.770037        -1.141876         0.962626
 C        -0.160430        -1.147779         0.606215
 C        -0.186410         0.065421        -0.315442
 O        -0.110274        -0.088848        -1.559789
 O        -0.604028         1.276390         0.269377
 C        -1.634715         1.349050         1.378336
 H        -4.399773         0.696913         2.444272
 H        -3.610380        -0.774524         2.946957
 H        -2.934463         0.848448         3.432588
 H        -3.835344        -1.228180         0.035874
 H        -2.958116         0.237645        -0.638605
 H        -2.116527        -2.174990         1.346178
 H         0.366177        -1.063015         1.490051
 H        -0.004341        -2.087911         0.034861
 H        -1.069932         1.533288         2.268929
 H        -2.278294         2.218784         1.021152
