19
Iteration:   214
 C        -2.933519         0.174951         3.006082
 C        -2.479212         0.079182         1.590161
 C        -3.171926        -0.341228         0.259289
 C        -2.133905        -1.211578         0.805058
 C        -0.761046        -1.325492         0.167838
 C        -0.161158         0.045337        -0.279458
 O         0.723263         0.123085        -1.069572
 O        -0.889021         1.171789        -0.004410
 C        -1.607832         1.270057         1.250625
 H        -3.688624        -0.540215         3.449244
 H        -2.014336        -0.043362         3.557893
 H        -3.233175         1.149450         3.359881
 H        -4.140949        -0.775292         0.480950
 H        -3.165663         0.246975        -0.724253
 H        -2.568102        -2.074058         1.331798
 H        -0.145448        -1.952497         0.776502
 H        -0.854017        -1.822788        -0.852010
 H        -0.990020         1.725515         2.016119
 H        -2.319438         2.108108         1.084393
