19
Iteration:  2743
 C        -2.982366         0.209743         3.010332
 C        -2.499928         0.061455         1.546143
 C        -3.175193        -0.568681         0.380135
 C        -1.869634        -1.174343         1.068892
 C        -0.522436        -1.296749         0.284920
 C        -0.194374         0.070242        -0.344044
 O         0.685394         0.296497        -1.153070
 O        -1.015215         1.110512        -0.137441
 C        -1.831644         1.273895         1.127108
 H        -3.644224         1.204649         2.991019
 H        -3.659892        -0.598663         3.366073
 H        -2.154861         0.256106         3.732393
 H        -4.011748        -1.137016         0.492916
 H        -2.853519        -0.005545        -0.508626
 H        -2.148934        -2.075787         1.630282
 H         0.324847        -1.732167         0.911916
 H        -0.596829        -1.992574        -0.613798
 H        -1.216841         1.695852         1.925887
 H        -2.615302         2.005329         0.725794
