19
Iteration:  1080
 C        -2.718109         0.356894         2.920903
 C        -2.646677         0.112164         1.420673
 C        -3.402001        -0.957142         0.643104
 C        -1.957896        -1.125581         1.055769
 C        -0.790410        -1.266430         0.028644
 C        -0.142924         0.091938        -0.338852
 O         0.782145         0.251660        -1.114180
 O        -0.574396         1.160787         0.408317
 C        -2.079825         1.368464         0.676844
 H        -3.764533         0.649264         3.258901
 H        -2.501886        -0.649634         3.355007
 H        -1.985872         1.141033         3.234286
 H        -4.147922        -1.445065         1.196923
 H        -3.521454        -0.771701        -0.413943
 H        -1.805538        -1.845504         1.835673
 H         0.137305        -1.665277         0.475917
 H        -1.030391        -1.809863        -0.866498
 H        -2.100773         2.188012         1.447689
 H        -2.497635         1.686061        -0.209550
