19
Iteration:  2970charge 0 multiplicity 1
 C        -3.439421         0.142714         2.721074
 C        -2.407734         0.085795         1.486511
 C        -2.949421        -0.765864         0.399577
 C        -1.720940        -1.178161         1.251034
 C        -0.440539        -1.111540         0.447537
 C        -0.261585         0.140758        -0.378722
 O         0.256809         0.148536        -1.503497
 O        -0.850028         1.260063         0.067297
 C        -1.528840         1.251341         1.301817
 H        -3.686605         1.213799         2.702661
 H        -4.286538        -0.513884         2.556167
 H        -2.976274        -0.001193         3.721811
 H        -3.958049        -1.242992         0.416791
 H        -2.706964        -0.459834        -0.599038
 H        -1.743777        -1.922217         2.087103
 H         0.418957        -1.104830         1.112435
 H        -0.260056        -1.850750        -0.310685
 H        -0.854896         1.424246         2.166868
 H        -2.239776         2.177941         1.261241
