19
Iteration:  2519charge 0 multiplicity 1
 C        -3.392612         0.144844         2.889458
 C        -2.434744         0.073916         1.616962
 C        -2.917863        -0.479533         0.278282
 C        -1.806205        -1.210713         1.057954
 C        -0.233598        -1.134266         0.622838
 C        -0.258421        -0.037850        -0.417967
 O         0.174152         0.086487        -1.559023
 O        -0.826302         1.189755         0.059171
 C        -1.605089         1.318658         1.276998
 H        -4.111442         0.953159         2.733866
 H        -4.109707        -0.689025         2.976369
 H        -3.018590         0.359757         3.932714
 H        -3.915559        -0.938113         0.176435
 H        -2.838344         0.302424        -0.653008
 H        -2.077857        -2.249295         1.149708
 H         0.451230        -0.741356         1.450192
 H         0.139986        -2.091678         0.208218
 H        -0.873451         1.461776         2.062803
 H        -2.195809         2.142672         0.948103
