19
Iteration:    84charge 0 multiplicity 1
 C        -3.379931         0.253176         2.632808
 C        -2.464545         0.103826         1.422444
 C        -3.023465        -0.565319         0.167064
 C        -1.947306        -1.198514         0.982474
 C        -0.482728        -1.061478         0.479208
 C        -0.261487         0.140034        -0.348519
 O        -0.068380         0.010222        -1.526364
 O        -0.429147         1.269809         0.378628
 C        -1.305274         1.096515         1.513491
 H        -4.422762        -0.283028         2.395837
 H        -2.936095        -0.244921         3.522078
 H        -3.630000         1.289925         2.921407
 H        -4.041457        -1.071704         0.216041
 H        -2.772697        -0.114496        -0.813074
 H        -2.125421        -2.072848         1.576143
 H         0.243321        -1.150614         1.328795
 H        -0.211130        -1.876221        -0.261730
 H        -0.750636         0.774008         2.487516
 H        -1.780728         2.089685         1.689873
