19
Iteration:   489
 C        -3.324137         0.199357         2.681863
 C        -2.434169         0.101149         1.486591
 C        -2.922276        -0.620954         0.215890
 C        -1.912707        -1.270490         1.156363
 C        -0.495921        -1.104368         0.629468
 C        -0.375254         0.085876        -0.389633
 O         0.180639         0.078732        -1.503630
 O        -0.757787         1.304192         0.093133
 C        -1.383490         1.217654         1.393174
 H        -4.442886         0.092920         2.460984
 H        -2.973921        -0.617591         3.268761
 H        -3.057954         0.983067         3.318925
 H        -3.946489        -0.983771         0.231218
 H        -2.453711        -0.224743        -0.725906
 H        -2.291787        -2.166755         1.695752
 H         0.259914        -0.879049         1.324328
 H        -0.084915        -1.991992         0.102160
 H        -0.589002         1.163460         2.123156
 H        -1.782974         2.237756         1.564721
