19
Iteration:  4567
 C        -3.184585         0.272933         2.938972
 C        -2.403356         0.062652         1.512448
 C        -3.091755        -0.378339         0.328562
 C        -2.085189        -1.285729         0.884004
 C        -0.648754        -1.285538         0.256920
 C        -0.218476         0.073639        -0.391357
 O         0.435303         0.221012        -1.382013
 O        -0.755210         1.138743         0.191420
 C        -1.449854         1.163736         1.392619
 H        -3.954967         0.993070         2.551915
 H        -3.567609        -0.565387         3.602277
 H        -2.328857         0.889656         3.383506
 H        -4.154215        -0.607147         0.441666
 H        -3.002441        -0.101275        -0.702578
 H        -2.260544        -2.331836         1.175776
 H         0.061946        -1.502542         1.020695
 H        -0.574626        -2.084911        -0.469979
 H        -0.823859         1.031640         2.247120
 H        -2.053289         2.079516         1.620547
