19
Iteration:   466
 C        -3.379420         0.215582         2.754978
 C        -2.444749         0.129547         1.507920
 C        -3.048974        -0.617924         0.330679
 C        -1.863970        -1.216213         1.123441
 C        -0.539339        -1.170979         0.454199
 C        -0.268655         0.113736        -0.376428
 O         0.389552         0.129551        -1.430451
 O        -0.923177         1.265002         0.007376
 C        -1.334208         1.180590         1.382227
 H        -4.332227        -0.264402         2.439030
 H        -2.929696        -0.321710         3.573076
 H        -3.469349         1.209710         3.107081
 H        -4.022509        -0.967633         0.668591
 H        -2.807139        -0.429082        -0.774357
 H        -1.951952        -2.015726         1.828685
 H         0.166486        -1.223844         1.212290
 H        -0.330357        -2.096103        -0.123109
 H        -0.459554         0.990966         1.946135
 H        -1.544586         2.235331         1.646997
