19
Iteration:  3534charge 0 multiplicity 1
 C        -3.045660         0.174796         2.908247
 C        -2.462275         0.103901         1.489725
 C        -3.277950        -0.402917         0.327389
 C        -2.058181        -1.171541         0.868262
 C        -0.740976        -1.283332         0.146366
 C        -0.216185         0.066717        -0.296002
 O         0.509899         0.050364        -1.249029
 O        -0.707220         1.273612         0.155816
 C        -1.422646         1.205662         1.327427
 H        -3.991616         0.671349         2.792779
 H        -3.311279        -0.763146         3.468772
 H        -2.351791         0.804846         3.512853
 H        -4.371605        -0.680732         0.511605
 H        -3.195569         0.164132        -0.572754
 H        -2.551327        -1.957835         1.386662
 H         0.019762        -1.724576         0.949801
 H        -0.676574        -1.977397        -0.686569
 H        -0.746691         0.722216         2.125824
 H        -1.736693         2.276524         1.632602
