19
Iteration:  3565charge 0 multiplicity 1
 C        -3.231418         0.233915         3.029232
 C        -2.469591         0.041217         1.680770
 C        -3.099584        -0.241062         0.354844
 C        -2.119116        -1.171820         0.917639
 C        -0.765804        -1.308156         0.153784
 C        -0.175926         0.015818        -0.517161
 O         0.670517         0.202152        -1.376252
 O        -0.768588         1.037848         0.133493
 C        -1.485945         1.141569         1.347558
 H        -4.283410         0.458474         2.850995
 H        -3.181846        -0.673367         3.631450
 H        -2.871317         1.101391         3.533863
 H        -4.123302        -0.449688         0.594289
 H        -2.738386         0.436809        -0.367355
 H        -2.586911        -2.135740         1.056914
 H         0.049307        -1.286937         0.944530
 H        -0.736323        -2.203151        -0.431531
 H        -0.667721         1.182561         2.013610
 H        -1.877138         2.221216         1.341993
