19
Iteration:  1381
 C        -3.156658         0.195299         2.847667
 C        -2.553335         0.138321         1.449604
 C        -3.170814        -0.710476         0.434647
 C        -1.847744        -1.210114         1.115468
 C        -0.435570        -1.191712         0.465188
 C        -0.181732         0.076607        -0.301576
 O         0.225741         0.095793        -1.471637
 O        -0.484397         1.227469         0.252477
 C        -1.788417         1.398090         0.983884
 H        -3.929579         0.981673         2.876124
 H        -3.554321        -0.783009         3.184894
 H        -2.336112         0.391467         3.611521
 H        -4.043390        -1.320980         0.494878
 H        -2.908695        -0.303044        -0.537434
 H        -2.121231        -1.983590         1.852820
 H         0.371196        -1.514610         1.113126
 H        -0.473096        -1.917475        -0.395742
 H        -1.595358         1.878072         1.920423
 H        -2.416898         2.085686         0.337300
