19
Iteration:  2628
 C        -3.465719         0.420511         2.889735
 C        -2.310550        -0.034385         1.743710
 C        -3.023756        -0.649024         0.396654
 C        -1.792074        -1.366438         1.062738
 C        -0.402730        -1.204618         0.322026
 C        -0.143531         0.108970        -0.392812
 O         0.402843         0.183130        -1.479036
 O        -0.934945         1.216637         0.055779
 C        -1.619833         1.261408         1.244570
 H        -3.778043         1.369040         2.472137
 H        -4.284884        -0.345090         2.725970
 H        -3.017534         0.282051         3.927704
 H        -4.115860        -1.064010         0.543184
 H        -2.810466         0.032499        -0.573721
 H        -1.802720        -2.316197         1.532586
 H         0.411649        -1.489168         1.158262
 H        -0.283297        -1.980070        -0.461102
 H        -1.070457         1.735697         2.083075
 H        -2.396741         1.976766         1.051478
