19
Iteration:  4475charge 0 multiplicity 1
 C        -3.155251         0.227600         2.892405
 C        -2.458365         0.007193         1.509439
 C        -3.025703        -0.371027         0.177332
 C        -2.015838        -1.240319         0.861489
 C        -0.526100        -1.203038         0.429842
 C        -0.262615         0.098628        -0.331384
 O         0.218266         0.058790        -1.470756
 O        -0.704640         1.241281         0.256938
 C        -1.460188         1.149003         1.447339
 H        -3.130870         1.357723         3.122362
 H        -4.186394        -0.053449         2.709034
 H        -2.688781        -0.483287         3.588378
 H        -4.121600        -0.666195        -0.009185
 H        -2.609001         0.055874        -0.755684
 H        -2.345574        -2.176968         1.350870
 H         0.025250        -1.442488         1.374807
 H        -0.243991        -1.871040        -0.416844
 H        -0.834596         1.429158         2.225965
 H        -2.000509         2.066354         1.283776
