19
Iteration:  2495
 C        -3.356216         0.165194         2.716779
 C        -2.460107         0.135493         1.496306
 C        -2.934233        -0.692499         0.346643
 C        -1.801039        -1.183426         1.186579
 C        -0.474560        -1.077991         0.523301
 C        -0.232056         0.104410        -0.411569
 O         0.274206         0.057373        -1.520535
 O        -0.915870         1.263106         0.050258
 C        -1.472525         1.264206         1.383214
 H        -3.910985         1.064057         2.857724
 H        -4.104086        -0.638337         2.843959
 H        -2.637926         0.139357         3.577387
 H        -3.952327        -1.172362         0.449449
 H        -2.785639        -0.326357        -0.680367
 H        -1.848554        -2.081325         1.834975
 H         0.413120        -1.005234         1.248157
 H        -0.315186        -2.019797        -0.100892
 H        -0.685598         1.132153         2.102315
 H        -1.909239         2.235386         1.375518
