19
Iteration:   979
 C        -2.421454         0.377912         2.841425
 C        -2.509456         0.149727         1.409193
 C        -3.336631        -1.184364         1.040509
 C        -1.858884        -1.142605         0.898974
 C        -1.200273        -0.999151        -0.588220
 C        -0.220315         0.176049        -0.321412
 O         1.031746         0.012252        -0.331437
 O        -0.744234         1.304427         0.254997
 C        -2.238166         1.339462         0.427819
 H        -2.822520         1.395419         3.103149
 H        -3.180503        -0.274453         3.380742
 H        -1.366023         0.162474         3.284024
 H        -3.707276        -1.680132         1.987738
 H        -3.867771        -1.456102         0.146860
 H        -1.136725        -1.688358         1.596299
 H        -0.749355        -1.916847        -0.789795
 H        -1.903948        -0.756754        -1.344765
 H        -2.383222         2.318487         0.753760
 H        -2.803409         1.264548        -0.467740
