19
Iteration:  2986
 C        -3.389860         0.127494         2.750801
 C        -2.562497         0.016544         1.573466
 C        -3.062499        -0.754941         0.418422
 C        -1.781284        -1.207327         1.257863
 C        -0.376853        -1.097568         0.517692
 C        -0.264833         0.111844        -0.507168
 O         0.332193         0.156119        -1.567121
 O        -0.668333         1.360499         0.046408
 C        -1.626640         1.307110         1.270416
 H        -4.182064         0.879563         2.872110
 H        -4.062885        -0.771947         2.707917
 H        -2.810655         0.076289         3.672115
 H        -3.939090        -1.320078         0.729668
 H        -2.898598        -0.468668        -0.646686
 H        -1.885492        -2.148859         1.772545
 H         0.471780        -0.969222         1.277325
 H        -0.333399        -2.130971         0.027234
 H        -0.937590         1.298690         2.134885
 H        -2.031382         2.298312         1.282222
