19
Iteration:  3272
 C        -3.311210         0.186212         2.839769
 C        -2.458555         0.022757         1.545293
 C        -3.071187        -0.437197         0.326422
 C        -1.919738        -1.243464         0.997007
 C        -0.420752        -1.245202         0.382569
 C        -0.239520         0.087885        -0.385540
 O         0.426760         0.113801        -1.436957
 O        -0.917422         1.278660         0.085450
 C        -1.442027         1.208725         1.404861
 H        -4.299249         0.581304         2.598713
 H        -3.434581        -0.711545         3.511192
 H        -2.817886         1.047389         3.395222
 H        -4.139768        -0.787173         0.447671
 H        -2.858603         0.041968        -0.573731
 H        -2.282548        -2.217454         1.405147
 H         0.322757        -1.611103         1.085814
 H        -0.397387        -1.924497        -0.424403
 H        -0.621684         1.231981         2.162394
 H        -2.028458         2.150753         1.574372
