19
Iteration:  3152charge 0 multiplicity 1
 C        -3.049811         0.212032         2.947222
 C        -2.443201         0.073055         1.549849
 C        -3.045326        -0.657514         0.251642
 C        -1.857981        -1.249711         1.061040
 C        -0.656045        -1.281873         0.206641
 C        -0.218997         0.049369        -0.286422
 O         0.510812         0.195546        -1.194195
 O        -0.871857         1.249578         0.030147
 C        -1.783645         1.382894         1.204273
 H        -2.372998        -0.179320         3.601816
 H        -3.098816         1.267888         3.255382
 H        -4.066798        -0.191677         3.137398
 H        -3.927652        -1.108060         0.506827
 H        -2.836173        -0.250621        -0.788575
 H        -2.027491        -2.282619         1.496671
 H         0.297362        -1.749344         0.729813
 H        -0.714435        -1.920319        -0.657634
 H        -1.102903         1.822375         1.992805
 H        -2.476858         2.170626         1.031181
