19
Iteration:  3922
 C        -3.285416        -0.009814         2.862450
 C        -2.382274         0.217302         1.592766
 C        -3.326158        -0.356002         0.478336
 C        -2.082125        -1.089510         0.892486
 C        -0.804098        -1.182985         0.177451
 C        -0.160333         0.057887        -0.412612
 O         0.620903        -0.040818        -1.317373
 O        -0.698908         1.268640         0.036369
 C        -1.290694         1.201445         1.412376
 H        -3.480655        -1.119041         2.922126
 H        -2.816504         0.543199         3.652763
 H        -4.228873         0.587842         2.865707
 H        -4.298565        -0.673566         0.780812
 H        -3.309320         0.294574        -0.446095
 H        -2.178247        -1.957172         1.478288
 H        -0.090500        -1.590899         0.960900
 H        -0.853582        -1.913776        -0.640230
 H        -0.502577         1.032229         2.163616
 H        -1.770807         2.130002         1.601945
