19
Iteration:  3687
 C        -3.341028         0.178980         2.824716
 C        -2.408279         0.162755         1.655372
 C        -3.044320        -0.273778         0.314404
 C        -2.075082        -1.189276         0.928129
 C        -0.725412        -1.329367         0.152371
 C        -0.306694         0.012040        -0.420552
 O         0.331203         0.065681        -1.466482
 O        -0.527402         1.173953         0.260390
 C        -1.343414         1.221112         1.525489
 H        -3.308575        -0.833097         3.163922
 H        -2.959829         0.906890         3.606725
 H        -4.389398         0.434772         2.580369
 H        -4.121691        -0.574368         0.348533
 H        -2.553884         0.164493        -0.575009
 H        -2.268735        -2.133916         1.348641
 H        -0.017890        -1.703347         0.947005
 H        -0.685246        -2.065557        -0.653030
 H        -0.666458         1.328991         2.362995
 H        -1.716930         2.286633         1.298530
