19
Iteration:   865
 C        -2.151767         0.180164         2.894865
 C        -2.504617         0.053951         1.429572
 C        -3.544653        -0.924544         0.818123
 C        -2.031136        -1.192186         0.916415
 C        -1.080520        -1.055486        -0.211119
 C        -0.234535         0.238907        -0.248113
 O         1.010676         0.148944        -0.362652
 O        -0.782093         1.381510         0.057557
 C        -2.222382         1.184807         0.389221
 H        -3.012257         0.428013         3.596369
 H        -2.142580        -0.862585         3.254231
 H        -1.198742         0.734851         3.069887
 H        -4.193047        -1.423815         1.536310
 H        -3.874027        -0.633327        -0.143330
 H        -1.741654        -1.817722         1.668399
 H        -0.258917        -1.844974        -0.050543
 H        -1.469324        -1.217974        -1.237272
 H        -2.403202         2.251452         0.764308
 H        -2.877121         1.118619        -0.523113
