19
Iteration:    48charge 0 multiplicity 1
 C        -3.425194         0.138951         2.707128
 C        -2.446646         0.143323         1.498970
 C        -2.939754        -0.379509         0.180528
 C        -1.950344        -1.206532         1.029811
 C        -0.448074        -1.189463         0.573437
 C        -0.251478         0.024368        -0.351637
 O         0.021581         0.127255        -1.543481
 O        -0.551256         1.198463         0.243015
 C        -1.336590         1.172619         1.427822
 H        -4.338514        -0.312527         2.375403
 H        -2.985304        -0.690238         3.415612
 H        -3.643656         1.090341         3.318280
 H        -3.952439        -0.808002         0.178355
 H        -2.700260         0.081800        -0.781464
 H        -2.472670        -2.212608         1.427921
 H         0.219702        -1.221639         1.442286
 H        -0.276073        -1.985433        -0.128129
 H        -0.695478         1.292935         2.383188
 H        -1.866903         2.148338         1.268909
