19
Iteration:  2101charge 0 multiplicity 1
 C        -3.305279         0.204982         2.819057
 C        -2.517887         0.082413         1.476313
 C        -2.881988        -0.675911         0.268720
 C        -1.757262        -1.190230         1.038325
 C        -0.313223        -1.081601         0.611482
 C        -0.268383         0.146552        -0.331595
 O         0.233732         0.050599        -1.476946
 O        -0.977605         1.211657         0.009702
 C        -1.566819         1.280295         1.336157
 H        -3.539127         1.250815         3.127541
 H        -4.346944        -0.258825         2.969793
 H        -2.634638        -0.209650         3.630905
 H        -3.840190        -1.211521         0.469953
 H        -2.905095        -0.355198        -0.788462
 H        -2.110252        -2.049438         1.601409
 H         0.372289        -1.204749         1.527680
 H         0.075091        -1.929451        -0.055616
 H        -0.640122         1.310212         2.002988
 H        -1.973728         2.300469         1.245490
