19
Iteration:  1356charge 0 multiplicity 1
 C        -3.165441         0.163133         2.797657
 C        -2.355381         0.159262         1.437670
 C        -3.084206        -0.916259         0.383830
 C        -1.838355        -1.232805         1.198381
 C        -0.622252        -1.153605         0.363652
 C        -0.369624         0.136224        -0.400176
 O         0.258064        -0.013907        -1.422128
 O        -0.426134         1.313623         0.311381
 C        -1.754089         1.548455         1.060421
 H        -3.689709         1.186641         2.856627
 H        -3.887197        -0.686859         2.777640
 H        -2.624249        -0.241538         3.691860
 H        -4.187316        -0.905390         0.696298
 H        -2.920940        -0.630267        -0.641904
 H        -1.999313        -2.028944         1.894262
 H         0.130613        -1.001158         1.019292
 H        -0.470626        -2.083234        -0.180117
 H        -1.752143         2.165569         2.101650
 H        -2.388219         2.013156         0.349921
