19
Iteration:  2578
 C        -3.216013         0.072680         2.771961
 C        -2.512495         0.221837         1.408665
 C        -2.991291        -0.793860         0.248086
 C        -1.929321        -1.200636         1.156754
 C        -0.530653        -1.126701         0.632510
 C        -0.263312         0.151277        -0.358540
 O         0.202127         0.078818        -1.490187
 O        -0.744728         1.358048         0.008723
 C        -1.456840         1.279470         1.342528
 H        -4.012664         0.885739         2.804597
 H        -3.540590        -0.972148         2.847025
 H        -2.424927         0.215702         3.495942
 H        -4.012319        -1.197843         0.317307
 H        -2.561140        -0.644058        -0.631657
 H        -2.081671        -1.902968         2.004484
 H         0.121829        -1.054682         1.449167
 H        -0.208245        -2.001088         0.093479
 H        -0.781400         1.129771         2.222947
 H        -1.791706         2.348154         1.550672
