19
Iteration:  3591charge 0 multiplicity 1
 C        -3.256489         0.122835         2.892987
 C        -2.411807         0.111097         1.570322
 C        -3.196261        -0.266207         0.365838
 C        -2.072654        -1.140358         0.879397
 C        -0.698502        -1.314547         0.211421
 C        -0.232112         0.041048        -0.381399
 O         0.531909         0.034582        -1.325684
 O        -0.769580         1.218705         0.068627
 C        -1.316209         1.209273         1.463636
 H        -4.332105         0.007922         2.764665
 H        -2.848329        -0.727458         3.471618
 H        -3.131742         1.081068         3.469547
 H        -4.198576        -0.549571         0.714803
 H        -2.951454         0.343842        -0.534684
 H        -2.492922        -2.080494         1.192589
 H         0.129096        -1.660765         0.895379
 H        -0.806552        -1.961294        -0.693388
 H        -0.404954         1.159253         2.145528
 H        -1.710062         2.212561         1.546182
