19
Iteration:  3874charge 0 multiplicity 1
 C        -3.038335         0.299028         2.922752
 C        -2.466169         0.053640         1.584152
 C        -3.171399        -0.273122         0.227927
 C        -2.073900        -1.222655         0.851230
 C        -0.707846        -1.347601         0.185540
 C        -0.183845        -0.005482        -0.333072
 O         0.511263         0.147906        -1.322254
 O        -0.786508         1.126375         0.186671
 C        -1.482765         1.192664         1.445613
 H        -3.922430        -0.332948         3.150194
 H        -2.261037         0.439535         3.701394
 H        -3.352740         1.352478         2.877844
 H        -4.132510        -0.855899         0.250754
 H        -2.971101         0.283275        -0.663358
 H        -2.601142        -2.176992         1.240474
 H         0.072119        -1.791567         0.733684
 H        -0.907133        -1.954428        -0.723913
 H        -0.840580         1.067633         2.333522
 H        -1.946909         2.255150         1.550269
