19
Iteration:  4329charge 0 multiplicity 1
 C        -3.102236         0.136174         2.936671
 C        -2.546007         0.067400         1.499426
 C        -3.362988        -0.383619         0.289124
 C        -2.105152        -1.237022         0.883106
 C        -0.674057        -1.170189         0.277942
 C        -0.133336         0.109324        -0.390176
 O         0.636256         0.070044        -1.388116
 O        -0.717950         1.293853         0.145812
 C        -1.475916         1.154372         1.436872
 H        -4.242334         0.117947         2.855692
 H        -2.809654        -0.712183         3.673560
 H        -2.831648         1.050440         3.523329
 H        -4.274759        -0.808369         0.628940
 H        -3.379259         0.015599        -0.668767
 H        -2.329873        -2.258552         1.223329
 H         0.059697        -1.408767         1.156980
 H        -0.555330        -1.966409        -0.450539
 H        -0.627507         0.852390         2.130698
 H        -1.663027         2.220359         1.489882
