19
Iteration:  4750
 C        -3.339167         0.093584         2.921487
 C        -2.399545         0.193088         1.627164
 C        -3.076271        -0.403943         0.313161
 C        -2.055672        -1.180505         1.020408
 C        -0.674085        -1.309236         0.162161
 C        -0.201189         0.019090        -0.430266
 O         0.462603         0.117044        -1.410614
 O        -0.696191         1.218475         0.105810
 C        -1.419583         1.282847         1.485341
 H        -4.144646         0.788337         3.063689
 H        -3.881103        -0.829854         2.962005
 H        -2.769512         0.231012         3.805542
 H        -4.174288        -0.702572         0.238616
 H        -2.765670         0.142978        -0.600653
 H        -2.188256        -2.186717         1.560503
 H         0.098856        -1.766028         0.857967
 H        -0.871830        -2.026032        -0.653084
 H        -0.494140         1.409133         2.065006
 H        -1.842552         2.272371         1.271678
