19
Iteration:  3866charge 0 multiplicity 1
 C        -3.045019         0.325809         2.934406
 C        -2.448939         0.082752         1.505964
 C        -3.200024        -0.251356         0.252634
 C        -2.087441        -1.232879         0.876145
 C        -0.651061        -1.363473         0.195812
 C        -0.160909         0.025856        -0.355277
 O         0.504719         0.140895        -1.351554
 O        -0.769214         1.092995         0.211801
 C        -1.519230         1.161513         1.442726
 H        -4.014894        -0.087899         3.341961
 H        -2.449807         0.067043         3.810948
 H        -3.354512         1.389417         2.919314
 H        -4.205735        -0.676963         0.340294
 H        -3.177753         0.539377        -0.512651
 H        -2.460279        -2.285958         1.128604
 H         0.148218        -1.790002         0.827821
 H        -0.646377        -1.982914        -0.768181
 H        -0.822207         1.132342         2.296962
 H        -2.189445         2.006279         1.510115
