19
Iteration:  4995charge 0 multiplicity 1
 C        -3.220076         0.057122         2.904984
 C        -2.441665         0.161777         1.576074
 C        -3.100351        -0.383112         0.358617
 C        -2.006657        -1.178709         1.053459
 C        -0.793990        -1.284675         0.166169
 C        -0.200876         0.016271        -0.424068
 O         0.593902         0.099954        -1.327403
 O        -0.803953         1.165681         0.102222
 C        -1.442303         1.371199         1.339106
 H        -3.812839         0.923042         3.275910
 H        -3.950593        -0.786910         2.940708
 H        -2.540162        -0.251120         3.711692
 H        -4.069279        -0.721599         0.644571
 H        -2.765492         0.035464        -0.585276
 H        -2.440459        -2.067348         1.523840
 H         0.138725        -1.390813         0.794512
 H        -0.765484        -1.954068        -0.746623
 H        -0.706433         1.567304         2.073091
 H        -2.013272         2.314032         1.165834
