19
Iteration:  4165
 C        -3.149341         0.029001         2.831968
 C        -2.391423         0.063169         1.609862
 C        -3.008642        -0.233304         0.202188
 C        -2.041761        -1.178966         1.006148
 C        -0.774887        -1.282285         0.228774
 C        -0.296056         0.026549        -0.332482
 O         0.365419         0.121889        -1.324481
 O        -0.644460         1.183412         0.198299
 C        -1.416034         1.254746         1.372211
 H        -3.596021        -0.927837         3.110615
 H        -2.815368         0.699366         3.711001
 H        -4.057023         0.619431         2.492731
 H        -4.070158        -0.302126         0.195019
 H        -2.671520         0.267093        -0.714214
 H        -2.592038        -2.097616         1.417114
 H         0.097046        -1.576488         0.751260
 H        -0.764567        -1.832770        -0.677373
 H        -0.768753         1.068820         2.263445
 H        -2.114331         2.085264         1.340593
