19
Iteration:  4231charge 0 multiplicity 1
 C        -3.150674         0.153851         2.924586
 C        -2.453350         0.077650         1.476071
 C        -3.375380        -0.392253         0.414899
 C        -2.220454        -1.289363         0.892021
 C        -0.762196        -1.227369         0.188694
 C        -0.180136         0.071425        -0.454132
 O         0.691599         0.183636        -1.326498
 O        -0.620629         1.280377         0.148408
 C        -1.402205         1.136687         1.406839
 H        -3.344328        -0.804892         3.425125
 H        -2.740901         0.922788         3.649941
 H        -4.142664         0.607662         2.801946
 H        -4.331375        -0.802047         0.642242
 H        -3.245725         0.169867        -0.444669
 H        -2.501010        -2.315724         1.217894
 H        -0.101103        -1.396508         1.015335
 H        -0.602315        -2.068452        -0.438351
 H        -0.674907         0.775050         2.161652
 H        -1.668346         2.163019         1.513501
