19
Iteration:  3203
 C        -3.235922         0.014186         2.960531
 C        -2.550702         0.083576         1.531593
 C        -3.311536        -0.660113         0.431173
 C        -1.961759        -1.167695         0.945332
 C        -0.552023        -1.016537         0.381697
 C        -0.150863         0.138547        -0.399835
 O         0.582581         0.053550        -1.378834
 O        -0.719847         1.288111         0.031755
 C        -1.529990         1.299954         1.214007
 H        -2.841165         0.862087         3.678020
 H        -4.367684         0.087802         2.903392
 H        -2.978029        -0.893795         3.546965
 H        -4.044113        -1.250685         0.955587
 H        -3.679052        -0.231719        -0.543752
 H        -1.930849        -2.141711         1.437972
 H         0.254510        -1.173729         1.027442
 H        -0.470055        -1.862859        -0.357631
 H        -0.917668         1.566136         2.066134
 H        -2.071266         2.309435         0.944753
