19
Iteration:  2112charge 0 multiplicity 1
 C        -3.315715         0.302080         2.710779
 C        -2.476553         0.065457         1.527603
 C        -2.957432        -0.636278         0.278714
 C        -1.701267        -1.212152         1.068727
 C        -0.277806        -1.117100         0.552883
 C        -0.247979         0.102028        -0.357023
 O         0.203589         0.068238        -1.442240
 O        -1.027204         1.212348         0.015930
 C        -1.573808         1.231965         1.407459
 H        -3.445596         1.401461         2.724957
 H        -4.260161        -0.332389         2.815808
 H        -2.659576         0.087530         3.608222
 H        -3.736979        -1.430925         0.299270
 H        -2.653608        -0.208111        -0.677302
 H        -1.808249        -2.174059         1.592063
 H         0.513182        -0.867352         1.317491
 H        -0.079764        -2.041139        -0.077530
 H        -0.734636         1.113855         2.180966
 H        -2.129858         2.166279         1.647294
