19
Iteration:   606charge 0 multiplicity 1
 C        -3.407291         0.361965         2.717342
 C        -2.465226         0.037995         1.575621
 C        -3.023425        -0.772654         0.401182
 C        -1.800217        -1.245295         1.089206
 C        -0.404287        -1.139285         0.435835
 C        -0.201187         0.118817        -0.427197
 O         0.307185         0.170928        -1.512054
 O        -0.817226         1.227093         0.094592
 C        -1.510822         1.238279         1.361403
 H        -3.381312         1.387897         2.909822
 H        -4.475561         0.122868         2.556026
 H        -3.236758        -0.212796         3.662905
 H        -3.843056        -1.403808         0.789535
 H        -3.085359        -0.418893        -0.663542
 H        -1.996814        -2.151302         1.602011
 H         0.353184        -1.135037         1.260399
 H        -0.243060        -2.129968        -0.063048
 H        -0.844670         1.269328         2.259290
 H        -2.098553         2.145459         1.403430
