19
Iteration:  3469
 C        -3.240032         0.167306         2.967261
 C        -2.439772         0.084555         1.611673
 C        -3.202783        -0.289673         0.327747
 C        -2.006800        -1.116683         0.891079
 C        -0.573499        -1.323920         0.184312
 C        -0.122895        -0.018447        -0.392426
 O         0.504872         0.120400        -1.422753
 O        -0.776333         1.076214         0.207923
 C        -1.534717         1.288416         1.386280
 H        -2.860300         1.126394         3.304458
 H        -4.401340         0.223042         2.888188
 H        -2.912770        -0.524246         3.820277
 H        -4.195311        -0.719616         0.561893
 H        -2.996329         0.409779        -0.509735
 H        -2.260566        -2.128459         1.012173
 H         0.163371        -1.813799         0.900684
 H        -0.617941        -1.883569        -0.737414
 H        -0.763200         1.453674         2.232772
 H        -2.123960         2.242867         1.141769
