19
Iteration:  4040charge 0 multiplicity 1
 C        -3.427946         0.053846         2.936623
 C        -2.478604         0.134976         1.639270
 C        -3.130985        -0.296994         0.367359
 C        -2.001412        -1.104077         0.932473
 C        -0.652687        -1.282100         0.268175
 C        -0.238304        -0.024636        -0.541873
 O         0.496364         0.112494        -1.481779
 O        -0.628541         1.192715         0.182948
 C        -1.347855         1.261965         1.413798
 H        -4.497377         0.084409         2.569806
 H        -3.243429        -0.679983         3.687824
 H        -3.301191         0.949143         3.584133
 H        -4.159367        -0.771364         0.371685
 H        -2.824292         0.032780        -0.609696
 H        -2.371407        -2.004428         1.360405
 H         0.198875        -1.268400         0.972285
 H        -0.629202        -2.260574        -0.287128
 H        -0.758760         0.867817         2.247472
 H        -1.718755         2.291710         1.576216
