19
Iteration:  1955
 C        -3.261887         0.211576         2.857260
 C        -2.444633         0.144542         1.581306
 C        -3.195862        -0.800513         0.532372
 C        -1.845676        -1.152845         1.195394
 C        -0.650350        -1.174037         0.261544
 C        -0.187566         0.105300        -0.455363
 O         0.724711         0.281371        -1.262218
 O        -0.998273         1.141912        -0.141495
 C        -1.563170         1.293812         1.191467
 H        -4.181450         0.912820         2.873494
 H        -3.651878        -0.787846         3.132947
 H        -2.601726         0.414986         3.728079
 H        -4.175727        -1.229530         0.857748
 H        -3.236074        -0.426972        -0.486520
 H        -1.721219        -2.115747         1.808200
 H         0.197782        -1.726764         0.840985
 H        -0.745571        -1.915985        -0.583248
 H        -0.683214         1.259080         1.900802
 H        -1.794587         2.354916         1.299917
