19
Iteration:  2237
 C        -3.132784         0.204222         2.916791
 C        -2.461739         0.024706         1.550449
 C        -3.169681        -0.665738         0.411029
 C        -1.866787        -1.196604         0.927851
 C        -0.411717        -1.131289         0.465639
 C        -0.219908         0.098997        -0.392914
 O         0.464120         0.085673        -1.425985
 O        -0.772806         1.247344         0.105044
 C        -1.811723         1.301579         1.189508
 H        -4.054176         0.790794         2.664479
 H        -3.530291        -0.722143         3.299707
 H        -2.472861         0.747133         3.594837
 H        -4.089479        -1.265050         0.528727
 H        -3.229860        -0.167380        -0.614086
 H        -1.909968        -1.990394         1.663940
 H         0.328659        -1.184143         1.349428
 H        -0.122553        -1.881165        -0.255274
 H        -1.195101         1.721006         2.035317
 H        -2.651846         2.027351         0.930967
