19
Iteration:  2815charge 0 multiplicity 1
 C        -3.146572         0.347398         2.937117
 C        -2.488832         0.055316         1.608559
 C        -3.195278        -0.841100         0.440908
 C        -1.894920        -1.237563         1.084334
 C        -0.629163        -1.204376         0.238677
 C        -0.088146         0.133286        -0.371034
 O         0.670446         0.318512        -1.292934
 O        -0.912876         1.194641        -0.092682
 C        -1.723119         1.235603         1.230699
 H        -3.990720         0.901475         2.681756
 H        -3.607475        -0.588511         3.241068
 H        -2.664841         0.703230         3.881115
 H        -3.962256        -1.443721         0.848240
 H        -3.151352        -0.537758        -0.661112
 H        -1.754323        -2.133047         1.745768
 H         0.227606        -1.575833         0.819051
 H        -0.656480        -1.897571        -0.558136
 H        -0.958131         1.450758         2.000110
 H        -2.368653         2.092983         1.024376
