19
Iteration:  3301charge 0 multiplicity 1
 C        -3.329396         0.046919         2.899462
 C        -2.528515         0.122019         1.468323
 C        -3.148408        -0.594325         0.376464
 C        -1.960107        -1.165625         1.047320
 C        -0.625388        -1.089383         0.393660
 C        -0.259011         0.025157        -0.531945
 O         0.423434         0.137778        -1.491297
 O        -0.604225         1.299566         0.173572
 C        -1.378938         1.204977         1.347235
 H        -4.438572        -0.173953         2.619454
 H        -3.160593        -0.626275         3.787162
 H        -3.573043         1.056302         3.157884
 H        -4.136868        -0.936673         0.600854
 H        -3.047649        -0.100823        -0.607305
 H        -2.118836        -2.110078         1.622407
 H        -0.035644        -0.859983         1.313527
 H        -0.245973        -2.075273        -0.015817
 H        -0.643243         0.968936         2.099905
 H        -1.705164         2.304197         1.377233
