19
Iteration:   446
 C        -3.341937         0.302727         2.890083
 C        -2.489339         0.074931         1.615244
 C        -3.095266        -0.577690         0.425380
 C        -1.884162        -1.229949         1.034559
 C        -0.476011        -1.166878         0.307966
 C        -0.237418         0.089412        -0.427792
 O         0.553479         0.135398        -1.367662
 O        -0.910456         1.184327        -0.006809
 C        -1.504921         1.199617         1.332510
 H        -4.122883        -0.530686         2.744943
 H        -2.906243         0.227339         3.858162
 H        -3.772744         1.234797         2.654826
 H        -3.969960        -1.172987         0.586412
 H        -2.998540         0.051197        -0.497970
 H        -2.101653        -2.219616         1.474052
 H         0.371089        -1.508390         0.925150
 H        -0.536773        -1.933262        -0.507496
 H        -0.728977         1.249264         2.101681
 H        -1.933895         2.218520         1.402013
