19
Iteration:   684
 C        -2.865640         0.023305         2.999805
 C        -2.528954         0.120094         1.471237
 C        -3.264510        -0.638092         0.454073
 C        -2.005408        -1.174628         1.008385
 C        -0.675473        -1.122675         0.421881
 C        -0.195936         0.077577        -0.396335
 O         0.771895         0.163518        -1.078659
 O        -0.933508         1.224759        -0.198875
 C        -1.760784         1.366862         1.022348
 H        -3.535573         0.738700         3.356262
 H        -3.379738        -0.912213         3.115959
 H        -1.968419         0.120467         3.531846
 H        -4.253206        -1.159851         0.760320
 H        -3.234422        -0.262797        -0.586711
 H        -2.169103        -1.990319         1.791681
 H         0.032913        -1.321936         1.221970
 H        -0.580820        -2.105802        -0.156831
 H        -1.116798         1.682193         1.838029
 H        -2.407154         2.212957         0.672707
