19
Iteration:  3219charge 0 multiplicity 1
 C        -3.175633         0.091828         2.909751
 C        -2.518373         0.072616         1.543536
 C        -3.218479        -0.602458         0.420876
 C        -1.948530        -1.172544         1.005305
 C        -0.563950        -1.156907         0.344884
 C        -0.192869         0.149979        -0.401616
 O         0.555986         0.094050        -1.388914
 O        -0.760206         1.324860        -0.008463
 C        -1.616045         1.248530         1.277536
 H        -3.208232         1.029191         3.339717
 H        -4.186180        -0.257583         2.761598
 H        -2.705423        -0.694762         3.513752
 H        -4.198428        -1.145647         0.513466
 H        -2.964511        -0.162497        -0.505459
 H        -2.214564        -1.976433         1.708940
 H         0.067882        -1.255307         1.311242
 H        -0.277425        -2.041480        -0.195538
 H        -0.920864         1.101002         2.156847
 H        -2.076895         2.173661         1.426430
