19
Iteration:  2778charge 0 multiplicity 1
 C        -3.104771         0.165911         2.849597
 C        -2.434412         0.084374         1.485748
 C        -3.215428        -0.884514         0.594856
 C        -1.821573        -1.194081         1.132247
 C        -0.714021        -1.119585         0.175643
 C        -0.296968         0.187239        -0.450242
 O         0.738346         0.165009        -1.058304
 O        -0.977101         1.348366        -0.199154
 C        -1.567833         1.268138         1.196009
 H        -3.761883         1.126245         2.860584
 H        -3.910579        -0.581891         2.679676
 H        -2.548195         0.058773         3.808438
 H        -4.167693        -1.437240         0.938030
 H        -3.336804        -0.836724        -0.466700
 H        -1.837028        -1.905403         1.922113
 H         0.145157        -1.264470         0.791219
 H        -0.754087        -1.964877        -0.577248
 H        -0.721944         1.383191         1.949904
 H        -2.183257         2.165451         1.291191
