19
Iteration:   235
 C        -2.939623         0.133784         3.083561
 C        -2.515972         0.012803         1.624311
 C        -3.326277        -0.351969         0.419072
 C        -2.054231        -1.194331         0.916494
 C        -0.823318        -1.245084         0.012821
 C        -0.158201         0.020742        -0.390368
 O         0.898422         0.136155        -0.973572
 O        -0.871575         1.142153        -0.069404
 C        -1.673224         1.323578         1.114443
 H        -3.995382        -0.052385         3.250486
 H        -2.439858        -0.476014         3.830497
 H        -2.873782         1.170536         3.388621
 H        -4.342692        -0.695790         0.260407
 H        -2.898081         0.276549        -0.441943
 H        -2.311073        -2.167602         1.498922
 H        -0.017168        -1.839633         0.447451
 H        -1.095513        -1.828260        -0.900379
 H        -1.027504         1.556602         1.927230
 H        -2.289337         2.241966         0.956558
