19
Iteration:   255charge 0 multiplicity 1
 C        -2.980688         0.138574         3.012085
 C        -2.458813         0.199307         1.501774
 C        -3.378904        -0.557952         0.561385
 C        -2.089856        -1.146780         0.848432
 C        -0.873412        -1.296396        -0.046094
 C        -0.176520         0.058472        -0.387474
 O         0.944617         0.106853        -0.882996
 O        -0.866618         1.232359        -0.114593
 C        -1.577302         1.337865         1.183211
 H        -3.996854         0.105680         2.947233
 H        -2.661585        -0.875936         3.397370
 H        -2.697824         0.947014         3.727200
 H        -4.097349        -0.993781         1.219906
 H        -3.709530        -0.200836        -0.456780
 H        -2.228070        -2.166789         1.473516
 H        -0.037615        -1.889868         0.424890
 H        -1.053716        -1.831834        -0.977311
 H        -0.863793         1.481192         1.976716
 H        -2.223985         2.244397         1.039885
