19
Iteration:  3872charge 0 multiplicity 1
 C        -3.036758         0.299733         2.920513
 C        -2.455266         0.067664         1.569666
 C        -3.180525        -0.264167         0.226514
 C        -2.081305        -1.235947         0.861890
 C        -0.696924        -1.355764         0.185580
 C        -0.168503         0.005572        -0.342078
 O         0.506437         0.145991        -1.326292
 O        -0.785457         1.112356         0.191190
 C        -1.496378         1.190597         1.446287
 H        -3.932104        -0.248150         3.196482
 H        -2.289763         0.401956         3.768552
 H        -3.330440         1.362962         2.874906
 H        -4.127814        -0.845791         0.262167
 H        -3.032730         0.365457        -0.648219
 H        -2.560081        -2.169776         1.189591
 H         0.135971        -1.791184         0.756196
 H        -0.868090        -1.930700        -0.711124
 H        -0.876378         1.056838         2.352920
 H        -2.024611         2.203905         1.589662
