19
Iteration:  4426charge 0 multiplicity 1
 C        -3.286738         0.091341         2.796238
 C        -2.451648         0.108141         1.501179
 C        -3.129726        -0.458549         0.319607
 C        -2.010988        -1.164401         1.036856
 C        -0.694332        -1.152308         0.349966
 C        -0.197429        -0.005817        -0.427433
 O         0.365535         0.142826        -1.532845
 O        -0.620436         1.209071         0.207724
 C        -1.412215         1.227793         1.487727
 H        -3.790726         1.045432         2.839308
 H        -4.058678        -0.705250         2.692196
 H        -2.651126        -0.182850         3.629965
 H        -4.130020        -0.698855         0.443414
 H        -2.967389        -0.064312        -0.664077
 H        -2.265483        -2.058915         1.612911
 H         0.074757        -1.073892         1.177347
 H        -0.466246        -2.019010        -0.252154
 H        -0.578108         1.118919         2.206565
 H        -1.652504         2.292002         1.629131
