19
Iteration:  2012charge 0 multiplicity 1
 C        -3.118127         0.317935         2.888345
 C        -2.445075         0.051831         1.524458
 C        -3.119179        -0.682084         0.344895
 C        -1.887300        -1.264753         1.150786
 C        -0.512581        -1.214235         0.312458
 C        -0.310009         0.108856        -0.424999
 O         0.550849         0.224967        -1.291781
 O        -0.925876         1.172492         0.025740
 C        -1.679221         1.280444         1.214184
 H        -4.097715         0.899199         2.900846
 H        -3.217097        -0.685476         3.401467
 H        -2.421823         0.915896         3.537685
 H        -4.065105        -1.226364         0.376291
 H        -2.742697        -0.561768        -0.675988
 H        -1.934939        -2.169052         1.682080
 H         0.208340        -1.185335         1.248310
 H        -0.248087        -2.059439        -0.435139
 H        -1.002736         1.521069         2.064012
 H        -2.386511         2.055751         0.920854
