19
Iteration:  2797
 C        -3.265254         0.227275         2.883614
 C        -2.503444         0.035400         1.508490
 C        -3.249923        -0.878223         0.646670
 C        -1.880209        -1.296027         1.159610
 C        -0.597803        -1.162844         0.204587
 C        -0.230237         0.191229        -0.500887
 O         0.761971         0.260269        -1.189379
 O        -0.912831         1.326363        -0.113942
 C        -1.572687         1.270757         1.128972
 H        -3.997718         1.135225         2.854043
 H        -3.909900        -0.578269         3.279186
 H        -2.362366         0.311264         3.458069
 H        -4.133020        -1.283362         1.087125
 H        -3.380187        -0.592131        -0.389712
 H        -1.784922        -2.148142         1.867884
 H         0.320590        -1.535846         0.831217
 H        -0.689708        -1.820440        -0.705278
 H        -0.797122         1.185033         1.878426
 H        -2.014662         2.335794         1.201844
