19
Iteration:   182charge 0 multiplicity 1
 C        -3.105466         0.071397         2.835188
 C        -2.514997         0.134558         1.465904
 C        -3.275370        -0.401867         0.352491
 C        -2.132205        -1.144223         0.914276
 C        -0.738729        -1.194048         0.334925
 C        -0.274788         0.079257        -0.418501
 O         0.652015         0.058370        -1.235818
 O        -0.700576         1.266754         0.074541
 C        -1.411248         1.191665         1.334107
 H        -3.218920        -1.051933         3.102687
 H        -2.321846         0.399772         3.532549
 H        -4.044873         0.591864         3.017175
 H        -4.179394        -0.813302         0.772817
 H        -3.310884         0.007846        -0.697271
 H        -2.361633        -1.914026         1.583463
 H        -0.010545        -1.283932         1.114221
 H        -0.507683        -2.074189        -0.316861
 H        -0.674582         0.974432         2.136575
 H        -1.916384         2.162840         1.396875
