19
Iteration:  1533
 C        -2.957599         0.194593         2.855951
 C        -2.537287         0.064197         1.488633
 C        -3.229957        -0.683303         0.348044
 C        -1.913197        -1.208559         1.001350
 C        -0.490718        -1.176419         0.525031
 C        -0.279852         0.052463        -0.369150
 O         0.570935         0.105189        -1.272897
 O        -0.913070         1.263753        -0.023487
 C        -1.703928         1.351292         1.130704
 H        -3.177153         1.217892         3.209584
 H        -3.758585        -0.401192         3.320907
 H        -2.038673        -0.137514         3.424562
 H        -4.170833        -1.192744         0.407676
 H        -3.143890        -0.238234        -0.626067
 H        -2.174318        -2.020233         1.716946
 H         0.132314        -0.966469         1.508721
 H        -0.120490        -2.195575         0.160721
 H        -0.993560         1.878298         1.914365
 H        -2.496179         2.057368         0.816944
