19
Iteration:  3535
 C        -3.048219         0.177374         2.919464
 C        -2.469143         0.098296         1.496686
 C        -3.277626        -0.388408         0.321044
 C        -2.064909        -1.174531         0.863123
 C        -0.734143        -1.292453         0.148384
 C        -0.212651         0.065084        -0.293977
 O         0.517354         0.058885        -1.258988
 O        -0.710310         1.262859         0.156199
 C        -1.428656         1.210432         1.329159
 H        -3.999387         0.673695         2.776270
 H        -3.320139        -0.761762         3.496148
 H        -2.359847         0.858162         3.515562
 H        -4.387961        -0.715153         0.522197
 H        -3.175130         0.175621        -0.577854
 H        -2.520389        -1.980670         1.414844
 H         0.034522        -1.718604         0.937747
 H        -0.682098        -1.989741        -0.698132
 H        -0.706617         0.726289         2.118749
 H        -1.728881         2.273090         1.619488
