19
Iteration:     5charge 0 multiplicity 1
 C        -3.236495         0.171841         2.818845
 C        -2.469314         0.124564         1.527912
 C        -3.092187        -0.394333         0.275771
 C        -2.022838        -1.203851         0.921003
 C        -0.610311        -1.280486         0.328359
 C        -0.253711         0.081633        -0.383595
 O         0.456803         0.055300        -1.348804
 O        -0.752579         1.230421         0.168101
 C        -1.420488         1.233167         1.411661
 H        -3.885790        -0.690476         2.815363
 H        -2.501457         0.030508         3.706668
 H        -3.827996         1.130618         2.990037
 H        -4.087316        -0.783857         0.354224
 H        -2.934938         0.096993        -0.699913
 H        -2.295654        -2.212279         1.420098
 H         0.167492        -1.372323         1.095411
 H        -0.643402        -2.023001        -0.462832
 H        -0.713177         1.326463         2.319264
 H        -2.040734         2.172273         1.440309
