19
Iteration:  1474charge 0 multiplicity 1
 C        -3.265060         0.180649         2.857925
 C        -2.486152         0.181871         1.546669
 C        -3.100727        -0.596195         0.499179
 C        -1.851266        -1.116391         1.163559
 C        -0.583822        -1.213520         0.360114
 C        -0.332948         0.082200        -0.494125
 O         0.654910         0.192458        -1.256440
 O        -0.977334         1.142480        -0.149328
 C        -1.516231         1.214765         1.206210
 H        -3.948507         1.034976         2.846405
 H        -3.825171        -0.767613         2.890521
 H        -2.568216         0.176849         3.668357
 H        -4.045135        -1.113189         0.847700
 H        -2.868039        -0.693523        -0.557861
 H        -1.826816        -1.818131         1.975835
 H         0.385517        -1.202244         1.063970
 H        -0.596848        -2.129953        -0.236159
 H        -0.694830         1.191064         1.897889
 H        -1.984165         2.205393         1.299690
