19
Iteration:  4886charge 0 multiplicity 1
 C        -3.406869         0.112823         2.842096
 C        -2.415953         0.126501         1.651725
 C        -2.967001        -0.279610         0.330211
 C        -1.936063        -1.178250         0.916002
 C        -0.579709        -1.272356         0.337536
 C        -0.275946        -0.020271        -0.453328
 O         0.306789         0.049189        -1.465366
 O        -0.726805         1.200746         0.111956
 C        -1.357191         1.297210         1.503134
 H        -4.009181         0.959196         2.850838
 H        -3.987964        -0.807483         2.760110
 H        -2.774039         0.047531         3.677196
 H        -4.027198        -0.592097         0.217172
 H        -2.776149         0.415112        -0.455977
 H        -2.289993        -2.174538         1.202950
 H         0.224106        -1.309091         1.130848
 H        -0.463502        -2.217625        -0.283251
 H        -0.610857         1.123599         2.348902
 H        -2.061428         2.160711         1.561330
