19
Iteration:   260
 C        -2.926374         0.140221         2.946941
 C        -2.440286         0.171079         1.484144
 C        -3.417238        -0.593863         0.589563
 C        -2.053829        -1.157395         0.850537
 C        -0.893031        -1.258995        -0.029658
 C        -0.181911         0.051506        -0.346015
 O         0.938645         0.102950        -0.868841
 O        -0.866237         1.256113        -0.113565
 C        -1.555077         1.356141         1.141398
 H        -4.127403         0.198429         2.829536
 H        -2.867313        -0.859226         3.342816
 H        -2.731646         0.817720         3.770406
 H        -4.123134        -1.104215         1.299261
 H        -3.888651        -0.380742        -0.353138
 H        -2.260914        -1.978638         1.385909
 H        -0.165679        -1.904972         0.413795
 H        -1.211337        -1.774063        -0.991452
 H        -0.878165         1.432750         2.048472
 H        -2.034628         2.347789         1.219850
