19
Iteration:  1682
 C        -3.266004         0.063533         2.822741
 C        -2.443115         0.076994         1.588868
 C        -3.002184        -0.617259         0.335605
 C        -1.842384        -1.205574         1.130778
 C        -0.485581        -1.106403         0.613698
 C        -0.201554         0.047568        -0.401928
 O         0.319064         0.051316        -1.522381
 O        -0.760188         1.282649        -0.059095
 C        -1.685329         1.395138         1.272559
 H        -3.825449         1.035145         2.907567
 H        -4.022647        -0.731514         2.854752
 H        -2.671551         0.002897         3.726917
 H        -4.004281        -1.106864         0.445196
 H        -2.836576        -0.303787        -0.662621
 H        -2.064548        -2.102004         1.798227
 H         0.101048        -0.884848         1.445207
 H        -0.054069        -1.988611         0.138753
 H        -1.000219         1.579234         2.169037
 H        -2.212793         2.345359         1.007637
