19
Iteration:  3498charge 0 multiplicity 1
 C        -3.177741         0.056048         2.920612
 C        -2.455392         0.147359         1.538406
 C        -3.254508        -0.455526         0.350198
 C        -2.122075        -1.170435         1.007775
 C        -0.803102        -1.248628         0.177535
 C        -0.262901         0.042973        -0.443122
 O         0.589750         0.070896        -1.333028
 O        -0.605597         1.279336         0.132061
 C        -1.406907         1.286038         1.346731
 H        -3.401681         1.065923         3.313661
 H        -4.001786        -0.640531         2.875482
 H        -2.579083        -0.322335         3.719855
 H        -4.262293        -0.519498         0.528731
 H        -2.859139         0.001528        -0.597304
 H        -2.303055        -2.177169         1.474918
 H        -0.043233        -1.413858         1.012309
 H        -0.691909        -2.027401        -0.588940
 H        -0.725083         1.255635         2.206484
 H        -1.843393         2.318822         1.376802
