19
Iteration:  1453charge 0 multiplicity 1
 C        -3.221730         0.183239         2.796842
 C        -2.485077         0.145050         1.533206
 C        -3.142629        -0.806263         0.459370
 C        -1.873763        -1.201623         1.194569
 C        -0.628405        -1.187942         0.368006
 C        -0.228674         0.141609        -0.372896
 O         0.564131         0.083552        -1.320556
 O        -0.931063         1.259579        -0.127405
 C        -1.450146         1.444904         1.237355
 H        -4.199490         0.695292         2.568244
 H        -3.531184        -0.862534         2.930893
 H        -2.762886         0.582580         3.676259
 H        -4.088751        -1.220749         0.925682
 H        -3.116238        -0.462341        -0.576778
 H        -1.967301        -1.988010         1.922366
 H         0.237789        -1.666352         1.045035
 H        -0.682581        -1.857941        -0.517996
 H        -0.575179         1.283742         1.970912
 H        -1.840412         2.421545         1.504903
