19
Iteration:  4274charge 0 multiplicity 1
 C        -3.088156         0.040099         2.915444
 C        -2.463112         0.109307         1.578302
 C        -3.114245        -0.229096         0.288028
 C        -2.032409        -1.168857         0.934836
 C        -0.766542        -1.350658         0.154739
 C        -0.236108        -0.024040        -0.343677
 O         0.587955         0.100644        -1.243879
 O        -0.801704         1.249641         0.134124
 C        -1.563411         1.284985         1.364861
 H        -3.680463        -0.866950         2.891086
 H        -2.190717        -0.077025         3.592767
 H        -3.663091         0.981998         2.993946
 H        -4.131636        -0.547786         0.198615
 H        -2.690205         0.175535        -0.558969
 H        -2.389543        -2.003561         1.568702
 H         0.037229        -1.961250         0.635404
 H        -0.916195        -1.871148        -0.782050
 H        -0.699533         1.329174         2.063424
 H        -1.850508         2.334710         1.337959
