19
Iteration:  1457
 C        -3.238310         0.159654         2.773316
 C        -2.475941         0.169994         1.517064
 C        -3.162566        -0.806597         0.468107
 C        -1.846188        -1.170904         1.228961
 C        -0.620203        -1.155677         0.340328
 C        -0.245958         0.085403        -0.366620
 O         0.576257         0.110322        -1.302836
 O        -0.959272         1.234948        -0.119076
 C        -1.418073         1.406704         1.214659
 H        -4.206363         0.742240         2.756824
 H        -3.612272        -0.873209         2.901468
 H        -2.705645         0.559340         3.687225
 H        -4.080155        -1.107301         0.848207
 H        -3.181824        -0.368830        -0.528855
 H        -1.960596        -1.972859         1.985120
 H         0.148442        -1.507133         0.919941
 H        -0.598264        -1.913923        -0.485387
 H        -0.559041         1.278587         1.988473
 H        -1.791499         2.416579         1.447265
