19
Iteration:  3374
 C        -3.299993         0.186369         2.901401
 C        -2.449148         0.033348         1.656603
 C        -2.998994        -0.376899         0.305182
 C        -2.021906        -1.227369         0.959996
 C        -0.563031        -1.248721         0.353808
 C        -0.199344         0.048223        -0.451865
 O         0.360002         0.158162        -1.536522
 O        -0.694986         1.175091         0.235117
 C        -1.535741         1.238611         1.336248
 H        -3.125741        -0.630354         3.626817
 H        -3.015276         1.082407         3.431703
 H        -4.387573         0.189230         2.655706
 H        -4.040580        -0.690527         0.227537
 H        -2.522508         0.060649        -0.621991
 H        -2.352717        -2.163136         1.401559
 H         0.118178        -1.330924         1.222792
 H        -0.449166        -2.168063        -0.286570
 H        -0.757191         1.354536         2.103157
 H        -2.051156         2.157685         1.210415
