19
Iteration:   484
 C        -3.288750         0.164967         2.647508
 C        -2.413761         0.129825         1.507354
 C        -2.955322        -0.650909         0.236715
 C        -1.942380        -1.243971         1.170135
 C        -0.509274        -1.140634         0.628247
 C        -0.370448         0.080211        -0.411441
 O         0.236076         0.105496        -1.499722
 O        -0.800563         1.316718         0.065782
 C        -1.356953         1.220315         1.396286
 H        -4.309493         0.134190         2.427334
 H        -3.050781        -0.601776         3.503259
 H        -3.259698         1.118862         3.358980
 H        -4.007718        -0.966913         0.119259
 H        -2.538298        -0.290360        -0.686171
 H        -2.310997        -2.025930         1.812018
 H         0.340605        -0.868535         1.381684
 H        -0.162747        -1.976547         0.032046
 H        -0.545235         0.879134         2.142104
 H        -1.852188         2.164463         1.632724
