19
Iteration:  2121
 C        -3.304866         0.361260         2.710441
 C        -2.418184        -0.020625         1.553944
 C        -2.923488        -0.672628         0.272958
 C        -1.736509        -1.240277         1.159188
 C        -0.292954        -1.059153         0.517388
 C        -0.288689         0.049933        -0.370465
 O         0.219069         0.109229        -1.482905
 O        -1.027651         1.246398         0.064762
 C        -1.518657         1.169294         1.359364
 H        -3.915437         1.289547         2.524827
 H        -4.193451        -0.305629         2.552924
 H        -2.928922         0.319982         3.751325
 H        -3.896635        -1.142314         0.233272
 H        -2.788885        -0.046647        -0.632187
 H        -1.898438        -2.155895         1.673000
 H         0.414670        -0.963226         1.261050
 H         0.080024        -1.975228        -0.028246
 H        -0.876322         1.133718         2.292988
 H        -2.031394         2.135590         1.509723
