19
Iteration:  3265
 C        -3.236940         0.207336         2.845626
 C        -2.465005         0.042736         1.553290
 C        -3.018626        -0.419657         0.268202
 C        -1.871513        -1.282519         0.994217
 C        -0.490668        -1.282774         0.366047
 C        -0.204197         0.075289        -0.348906
 O         0.373740         0.143268        -1.362691
 O        -0.960442         1.248547         0.061239
 C        -1.479979         1.241791         1.370661
 H        -4.105351         0.679630         2.395779
 H        -3.514373        -0.641205         3.405324
 H        -2.691085         0.869878         3.509107
 H        -4.049511        -0.780783         0.403800
 H        -2.877983         0.250078        -0.616161
 H        -2.150273        -2.171959         1.497311
 H         0.338841        -1.592971         1.112131
 H        -0.387821        -2.045842        -0.464260
 H        -0.685393         1.139100         2.176237
 H        -2.054656         2.076329         1.698384
