19
Iteration:  3126
 C        -3.108449         0.249337         2.907487
 C        -2.471789         0.036716         1.551769
 C        -3.173107        -0.665164         0.413914
 C        -1.873072        -1.292246         1.071429
 C        -0.598413        -1.240105         0.219598
 C        -0.265019         0.137594        -0.420271
 O         0.673037         0.215249        -1.216541
 O        -0.927201         1.255538        -0.028191
 C        -1.701054         1.267549         1.228852
 H        -2.851007        -0.635508         3.606308
 H        -2.710430         1.112112         3.492239
 H        -4.165367         0.405487         2.759580
 H        -4.206216        -1.130470         0.601669
 H        -3.019191        -0.197287        -0.532816
 H        -1.932570        -2.149279         1.727636
 H         0.259112        -1.486802         0.782882
 H        -0.495452        -2.004461        -0.618815
 H        -0.958320         1.413553         2.011872
 H        -2.324528         2.256154         1.296651
