19
Iteration:  1607charge 0 multiplicity 1
 C        -3.315638         0.291243         2.799689
 C        -2.381935         0.031612         1.637902
 C        -2.994803        -0.603329         0.466251
 C        -1.813424        -1.252331         1.163024
 C        -0.529406        -1.267397         0.409515
 C        -0.263861         0.030392        -0.421628
 O         0.457774         0.265084        -1.384084
 O        -0.892159         1.180666        -0.061223
 C        -1.597138         1.261034         1.230149
 H        -4.138473         0.880695         2.345553
 H        -3.753222        -0.476331         3.420546
 H        -2.862132         0.959458         3.514734
 H        -3.852181        -1.248499         0.421157
 H        -2.784734        -0.252198        -0.511016
 H        -2.183300        -2.049344         1.832193
 H         0.403722        -1.351925         0.956769
 H        -0.549946        -2.136275        -0.291257
 H        -0.993876         1.716020         1.963562
 H        -2.340763         1.968613         0.939481
