19
Iteration:  3005
 C        -3.326305         0.088238         2.914677
 C        -2.506023         0.115691         1.518747
 C        -3.114940        -0.807407         0.371420
 C        -1.809566        -1.255257         1.022539
 C        -0.460192        -1.011937         0.466343
 C        -0.200552         0.155844        -0.421274
 O         0.329307         0.089115        -1.506255
 O        -0.692953         1.286593         0.103591
 C        -1.594476         1.324529         1.240394
 H        -4.353043         0.623736         2.776464
 H        -3.647378        -0.887138         3.299886
 H        -2.786671         0.586907         3.686339
 H        -3.964733        -1.376847         0.633084
 H        -3.022049        -0.432711        -0.715854
 H        -1.877399        -1.929828         1.827594
 H         0.114554        -0.765343         1.402554
 H         0.045980        -1.973226         0.110332
 H        -1.021628         1.652212         2.126227
 H        -2.284920         2.212475         0.818447
