19
Iteration:  4511
 C        -3.345083        -0.010218         2.807473
 C        -2.458331         0.217279         1.576538
 C        -3.138137        -0.353153         0.314275
 C        -1.971069        -1.109989         0.981149
 C        -0.557689        -1.205468         0.430238
 C        -0.193879         0.044941        -0.437766
 O         0.302733         0.060776        -1.525126
 O        -0.681873         1.188879         0.128849
 C        -1.316564         1.257605         1.461111
 H        -3.904812         0.830330         3.312399
 H        -4.183199        -0.715824         2.541415
 H        -2.842227        -0.463130         3.756691
 H        -4.098003        -0.808204         0.358599
 H        -2.879174         0.166072        -0.647901
 H        -2.277268        -1.951850         1.669879
 H         0.153871        -1.358225         1.211147
 H        -0.450280        -2.013400        -0.306318
 H        -0.580642         1.073528         2.241478
 H        -1.862625         2.195683         1.485923
