19
Iteration:  1442charge 0 multiplicity 1
 C        -3.257648         0.227048         2.849439
 C        -2.406414         0.127815         1.532960
 C        -3.106889        -0.740934         0.473244
 C        -1.908456        -1.258005         1.113131
 C        -0.602077        -1.244794         0.399673
 C        -0.188870         0.170277        -0.379137
 O         0.520574         0.037964        -1.350964
 O        -0.865449         1.380294        -0.108421
 C        -1.576878         1.344294         1.266669
 H        -4.219720         0.762305         2.625220
 H        -3.441537        -0.738358         3.340131
 H        -2.761839         0.814188         3.613311
 H        -4.050839        -1.338145         0.686020
 H        -3.018984        -0.735366        -0.609519
 H        -2.007415        -2.055212         1.826689
 H         0.364170        -1.628336         0.990254
 H        -0.747956        -1.903920        -0.475670
 H        -0.692552         1.376236         2.012424
 H        -2.099408         2.290768         1.150982
