19
Iteration:  3718
 C        -3.235370         0.215675         2.710739
 C        -2.500160         0.186604         1.475340
 C        -3.137960        -0.379759         0.276142
 C        -2.095716        -1.139177         1.021511
 C        -0.739313        -1.299567         0.285279
 C        -0.301007         0.073554        -0.409752
 O         0.306697         0.098412        -1.411067
 O        -0.529781         1.270327         0.237855
 C        -1.202872         1.059316         1.523158
 H        -3.254638        -0.803357         3.089591
 H        -2.829236         0.812626         3.590140
 H        -4.298667         0.508411         2.725806
 H        -4.212011        -0.768845         0.358244
 H        -2.904232        -0.173499        -0.795283
 H        -2.323453        -1.994276         1.602298
 H        -0.004070        -1.717871         0.950604
 H        -0.717290        -1.955910        -0.545255
 H        -0.593588         0.505545         2.234258
 H        -1.503981         2.133663         1.858323
