19
Iteration:  2757
 C        -3.058240         0.188151         2.939571
 C        -2.490402         0.075959         1.546316
 C        -3.122424        -0.731642         0.398087
 C        -1.853009        -1.295139         1.123379
 C        -0.622647        -1.213496         0.268064
 C        -0.201494         0.111799        -0.336526
 O         0.702609         0.226616        -1.118969
 O        -1.036676         1.221725        -0.173019
 C        -1.722044         1.390594         1.127913
 H        -3.473971         1.201728         3.148804
 H        -3.782137        -0.604239         3.230596
 H        -2.202656         0.207005         3.633758
 H        -4.187555        -1.106788         0.623165
 H        -3.147740        -0.472211        -0.648047
 H        -1.935264        -2.123273         1.801841
 H         0.246992        -1.658370         0.624032
 H        -0.906441        -1.783890        -0.651893
 H        -0.879394         1.604716         1.866728
 H        -2.305070         2.287307         1.127945
