19
Iteration:   664charge 0 multiplicity 1
 C        -3.012372         0.075025         2.907379
 C        -2.515350         0.199073         1.454326
 C        -3.223442        -0.638681         0.389383
 C        -1.918413        -1.168324         1.056833
 C        -0.475730        -1.157995         0.414046
 C        -0.201945         0.097475        -0.315480
 O         0.659792         0.129165        -1.129358
 O        -1.126115         1.177673        -0.205507
 C        -1.615701         1.348533         1.166091
 H        -3.282416         1.094357         3.354574
 H        -3.852980        -0.671204         2.877114
 H        -2.221692        -0.314094         3.528758
 H        -4.208006        -1.163855         0.655508
 H        -3.249184        -0.277561        -0.648299
 H        -2.042109        -2.012568         1.884099
 H         0.238445        -1.331551         1.192313
 H        -0.356664        -2.029582        -0.325571
 H        -0.706811         1.380569         1.743255
 H        -2.071126         2.396254         1.106962
