19
Iteration:    45
 C        -3.403365         0.126923         2.714867
 C        -2.446226         0.133467         1.525598
 C        -2.931982        -0.373341         0.177852
 C        -1.934657        -1.206588         1.023244
 C        -0.480388        -1.197389         0.544908
 C        -0.247172         0.046289        -0.345380
 O         0.028286         0.109595        -1.505075
 O        -0.576106         1.207564         0.229879
 C        -1.351882         1.174981         1.417311
 H        -4.320458        -0.261312         2.377017
 H        -3.030265        -0.608196         3.442122
 H        -3.608971         1.064231         3.236889
 H        -3.904818        -0.728227         0.055870
 H        -2.574346         0.153856        -0.732378
 H        -2.386592        -2.137493         1.467795
 H         0.226445        -1.357008         1.370006
 H        -0.283371        -2.021404        -0.114347
 H        -0.706147         1.302498         2.261614
 H        -1.863740         2.104919         1.225932
