19
Iteration:   601charge 0 multiplicity 1
 C        -3.398569         0.339427         2.699710
 C        -2.478834         0.041997         1.519320
 C        -3.037198        -0.796831         0.397764
 C        -1.771879        -1.207039         1.092832
 C        -0.416503        -1.131289         0.425534
 C        -0.200695         0.114895        -0.361399
 O         0.249495         0.140950        -1.511022
 O        -0.782767         1.238581         0.113171
 C        -1.473399         1.268634         1.360730
 H        -3.345963         1.471223         2.925882
 H        -4.421644        -0.047951         2.547000
 H        -3.318596        -0.284592         3.602914
 H        -3.875453        -1.408323         0.703945
 H        -3.090680        -0.489254        -0.612716
 H        -1.923762        -2.141701         1.714566
 H         0.396601        -1.038810         1.193886
 H        -0.297702        -2.037369        -0.143009
 H        -0.924770         1.199481         2.321690
 H        -2.102826         2.187425         1.376617
