19
Iteration:   897charge 0 multiplicity 1
 C        -2.067854         0.274067         2.950719
 C        -2.390756         0.033243         1.434354
 C        -3.550551        -0.846315         0.929244
 C        -2.086121        -1.244217         0.704553
 C        -1.038484        -1.113740        -0.415420
 C        -0.155316         0.169019        -0.130324
 O         1.043392         0.201627        -0.150980
 O        -0.916473         1.281790        -0.068166
 C        -2.314272         1.226143         0.396172
 H        -3.030336         0.433565         3.460275
 H        -1.596949        -0.622750         3.345824
 H        -1.450466         1.088937         3.288579
 H        -4.112223        -1.427820         1.649874
 H        -4.212600        -0.426602         0.207295
 H        -1.808293        -1.944547         1.413743
 H        -0.507292        -2.138904        -0.427417
 H        -1.456079        -0.987101        -1.475455
 H        -2.340570         2.181784         1.028922
 H        -3.023405         1.172613        -0.494756
