19
Iteration:  3668charge 0 multiplicity 1
 C        -3.280047         0.196199         2.908104
 C        -2.407628         0.012772         1.599206
 C        -3.146350        -0.166065         0.325298
 C        -2.042546        -1.166562         0.822656
 C        -0.607557        -1.348135         0.216301
 C        -0.188843        -0.059593        -0.372292
 O         0.315999         0.064139        -1.486120
 O        -0.545650         1.157369         0.302102
 C        -1.431014         1.277209         1.413950
 H        -3.664894        -0.714077         3.390076
 H        -2.939604         0.945695         3.624593
 H        -4.237176         0.704025         2.677051
 H        -4.072029        -0.533832         0.616846
 H        -3.226502         0.741161        -0.361215
 H        -2.524030        -2.131452         1.082347
 H         0.213385        -1.832479         0.861735
 H        -0.520322        -2.069122        -0.664770
 H        -0.831973         1.251398         2.348988
 H        -2.025648         2.174534         1.297495
