19
Iteration:  2217charge 0 multiplicity 1
 C        -3.162101         0.206491         2.862147
 C        -2.429834        -0.001411         1.538069
 C        -2.987187        -0.579611         0.318476
 C        -1.830148        -1.308925         1.077274
 C        -0.508697        -1.178801         0.452697
 C        -0.263129         0.076282        -0.326761
 O         0.294009         0.160821        -1.414720
 O        -0.716913         1.238329         0.139960
 C        -1.755500         1.342486         1.133577
 H        -4.246996         0.559767         2.759322
 H        -3.179487        -0.671563         3.501004
 H        -2.657666         0.963972         3.452847
 H        -4.004478        -1.050077         0.353071
 H        -2.986212        -0.103679        -0.685442
 H        -2.002335        -2.324260         1.377068
 H         0.306169        -1.001913         1.322244
 H        -0.093065        -2.112028        -0.028903
 H        -1.229352         1.925230         1.985502
 H        -2.662422         1.786497         0.581672
