19
Iteration:  2355
 C        -2.986699         0.198541         3.033996
 C        -2.541377         0.056029         1.507604
 C        -3.287140        -0.831541         0.429532
 C        -1.954058        -1.161760         1.007870
 C        -0.559233        -1.170112         0.315062
 C        -0.168924         0.122495        -0.343803
 O         0.721854         0.233960        -1.142051
 O        -0.973115         1.236201        -0.192901
 C        -1.689691         1.321126         1.097296
 H        -3.468748         1.177019         3.077580
 H        -3.726149        -0.576599         3.301356
 H        -2.004951         0.110901         3.563669
 H        -4.216541        -1.411849         0.850540
 H        -3.521776        -0.451910        -0.572571
 H        -2.069441        -2.054334         1.650890
 H         0.076206        -1.237977         1.141649
 H        -0.435001        -2.079328        -0.243435
 H        -0.832822         1.382734         1.866947
 H        -2.295854         2.245077         1.031626
