19
Iteration:  3493charge 0 multiplicity 1
 C        -3.186369         0.094539         2.938274
 C        -2.486424         0.169693         1.576140
 C        -3.225470        -0.424598         0.360186
 C        -2.092764        -1.161529         0.978845
 C        -0.774019        -1.272901         0.182865
 C        -0.220845         0.015044        -0.444701
 O         0.563533         0.097709        -1.335159
 O        -0.600695         1.257663         0.122917
 C        -1.447023         1.243153         1.343050
 H        -3.454349         1.049570         3.411943
 H        -4.117681        -0.489847         2.704318
 H        -2.575106        -0.489805         3.704050
 H        -4.350455        -0.603256         0.552619
 H        -2.903951         0.162463        -0.472833
 H        -2.145132        -2.153882         1.386952
 H        -0.032851        -1.475308         0.932743
 H        -0.730959        -2.073311        -0.573240
 H        -0.689008         1.277626         2.147976
 H        -1.965190         2.188878         1.271221
