19
Iteration:  1699
 C        -3.257351         0.082549         2.914357
 C        -2.499043         0.165086         1.543718
 C        -2.931113        -0.566570         0.246829
 C        -1.803937        -1.081006         1.068493
 C        -0.295827        -1.120945         0.514509
 C        -0.293695         0.046845        -0.385147
 O         0.276208        -0.061841        -1.447190
 O        -0.846421         1.204517         0.123263
 C        -1.689580         1.391831         1.168963
 H        -3.848160         0.933982         3.237281
 H        -3.939120        -0.793724         2.900018
 H        -2.582131        -0.226664         3.753544
 H        -3.830997        -1.158275         0.155127
 H        -2.847595         0.063668        -0.684306
 H        -2.042852        -1.926590         1.659349
 H         0.523132        -1.136936         1.394010
 H        -0.146883        -2.051551        -0.063045
 H        -1.164496         1.950111         1.913406
 H        -2.517129         2.083995         0.939919
