19
Iteration:   275
 C        -2.958861         0.141538         2.844222
 C        -2.458767         0.128065         1.444756
 C        -3.504397        -0.683290         0.647128
 C        -2.076375        -1.199042         0.956213
 C        -0.919188        -1.173817        -0.076660
 C        -0.189067         0.104884        -0.281768
 O         0.909515         0.089602        -0.827638
 O        -0.826927         1.283095        -0.129257
 C        -1.512661         1.338171         1.135342
 H        -3.831637         0.740202         2.951739
 H        -3.059178        -0.920343         3.253381
 H        -2.054882         0.637860         3.328455
 H        -4.276012        -1.155885         1.207035
 H        -3.660836        -0.321054        -0.373864
 H        -1.778873        -1.966815         1.752766
 H        -0.127202        -1.974035         0.158278
 H        -1.170696        -1.392786        -1.097252
 H        -0.658378         1.251190         1.865250
 H        -2.026640         2.301926         1.129567
