19
Iteration:  4129
 C        -3.303541         0.065559         2.883574
 C        -2.526040         0.158093         1.530329
 C        -3.240226        -0.329618         0.283926
 C        -2.052130        -1.140041         0.887364
 C        -0.526760        -1.217864         0.281797
 C        -0.190608         0.033903        -0.417544
 O         0.352336         0.047157        -1.484980
 O        -0.523972         1.220723         0.249718
 C        -1.417583         1.198947         1.482915
 H        -4.176290        -0.627234         2.855438
 H        -2.727712        -0.197442         3.778213
 H        -3.718984         1.097375         2.962287
 H        -4.187637        -0.881207         0.562238
 H        -3.219644         0.318296        -0.652150
 H        -2.367645        -2.087403         1.265975
 H         0.155793        -1.327034         1.145206
 H        -0.424932        -2.115371        -0.333272
 H        -0.694510         1.091481         2.259237
 H        -1.566122         2.252407         1.615370
