19
Iteration:   746charge 0 multiplicity 1
 C        -2.853646         0.297603         2.938598
 C        -2.538437         0.133607         1.452278
 C        -3.378032        -0.867272         0.661508
 C        -1.920530        -1.284618         1.067769
 C        -0.922438        -1.286536        -0.079771
 C        -0.154502         0.098742        -0.358069
 O         0.847552         0.266276        -0.998397
 O        -0.616127         1.237414         0.233217
 C        -1.932070         1.358433         0.780144
 H        -3.956412         0.639371         3.075723
 H        -2.742346        -0.548760         3.700895
 H        -2.144410         1.138662         3.359388
 H        -4.286996        -1.345545         1.117747
 H        -3.416850        -0.705054        -0.391577
 H        -1.605845        -1.911947         1.830209
 H        -0.038747        -1.938988         0.204129
 H        -1.365177        -1.672942        -0.967828
 H        -1.862409         2.133372         1.579926
 H        -2.630361         1.794044         0.087556
