19
Iteration:   212charge 0 multiplicity 1
 C        -2.943514         0.163078         2.996622
 C        -2.483908         0.066696         1.569111
 C        -3.188944        -0.348545         0.261878
 C        -2.128090        -1.204591         0.787085
 C        -0.755467        -1.330256         0.168458
 C        -0.165461         0.044094        -0.275695
 O         0.702772         0.117601        -1.072109
 O        -0.887443         1.174396         0.007459
 C        -1.583093         1.306774         1.263811
 H        -3.589329        -0.511561         3.429588
 H        -1.975547         0.019640         3.547124
 H        -3.296375         1.150648         3.322453
 H        -4.162106        -0.753441         0.497995
 H        -3.145400         0.219389        -0.726278
 H        -2.561925        -2.129869         1.415453
 H        -0.088321        -1.937449         0.836464
 H        -0.779465        -1.874403        -0.800308
 H        -0.935917         1.657425         2.054330
 H        -2.286620         2.155363         1.093091
