19
Iteration:   792charge 0 multiplicity 1
 C        -2.888092         0.434263         2.933657
 C        -2.535533         0.087338         1.453667
 C        -3.304661        -1.100544         0.942513
 C        -1.855906        -1.219364         0.953367
 C        -1.116753        -0.953967        -0.389677
 C        -0.089194         0.150817        -0.235046
 O         0.932115         0.134485        -0.957996
 O        -0.493178         1.253377         0.475224
 C        -2.076093         1.188846         0.557016
 H        -3.578718         1.301254         2.962646
 H        -3.467432        -0.411412         3.427951
 H        -1.961010         0.510511         3.606158
 H        -3.907226        -1.613084         1.741537
 H        -3.786458        -0.988691        -0.103389
 H        -1.358329        -1.805150         1.783668
 H        -0.720339        -1.915709        -0.687915
 H        -1.872636        -0.630122        -1.096452
 H        -2.366479         2.151064         0.900158
 H        -2.339904         1.184518        -0.478173
