19
Iteration:  3281charge 0 multiplicity 1
 C        -3.378419         0.187703         2.823278
 C        -2.419885         0.064859         1.637694
 C        -3.127072        -0.494886         0.343658
 C        -1.954404        -1.225682         0.973305
 C        -0.480530        -1.162281         0.383431
 C        -0.221958         0.123906        -0.456514
 O         0.438430         0.099911        -1.462274
 O        -0.802218         1.254681         0.076193
 C        -1.444688         1.167954         1.450789
 H        -4.506773         0.305383         2.756291
 H        -3.171967        -0.730262         3.492596
 H        -3.053785         1.032655         3.488097
 H        -4.110359        -0.985995         0.417346
 H        -2.910133        -0.113193        -0.628248
 H        -2.243988        -2.229687         1.419937
 H         0.282970        -1.225983         1.121158
 H        -0.386008        -1.954017        -0.357928
 H        -0.632698         1.129249         2.144869
 H        -1.884732         2.199128         1.337795
