19
Iteration:  2260charge 0 multiplicity 1
 C        -3.179553         0.115096         2.926796
 C        -2.549816         0.121357         1.522812
 C        -3.146704        -0.812859         0.461164
 C        -1.930369        -1.191966         1.139454
 C        -0.551005        -1.148409         0.407369
 C        -0.193306         0.139926        -0.419453
 O         0.583370         0.149672        -1.354983
 O        -0.841816         1.291564        -0.052588
 C        -1.624988         1.349057         1.119316
 H        -3.839317         0.992139         3.188935
 H        -3.824268        -0.753370         2.905313
 H        -2.296110        -0.040178         3.527285
 H        -4.150998        -1.346015         0.662988
 H        -3.221307        -0.392138        -0.541134
 H        -2.071392        -2.067775         1.759464
 H         0.336751        -1.143770         1.180894
 H        -0.302672        -1.925914        -0.357079
 H        -0.932034         1.445326         2.050539
 H        -2.215306         2.348614         1.134185
