19
Iteration:  2651
 C        -3.242378         0.255534         2.825264
 C        -2.478907         0.071793         1.598570
 C        -2.983236        -0.662637         0.434283
 C        -1.810472        -1.242117         1.173273
 C        -0.530861        -1.214761         0.337739
 C        -0.258257         0.050698        -0.421820
 O         0.522885         0.242069        -1.357487
 O        -0.928469         1.200989        -0.016097
 C        -1.669654         1.285713         1.226562
 H        -3.756710         1.203065         2.596589
 H        -4.020586        -0.523714         2.886424
 H        -2.584439         0.217449         3.722506
 H        -3.955952        -1.261007         0.641325
 H        -2.859670        -0.178194        -0.546673
 H        -2.001082        -2.164199         1.709977
 H         0.382055        -1.503232         1.002340
 H        -0.606269        -2.017315        -0.391569
 H        -0.936387         1.451261         2.030951
 H        -2.248809         2.197292         1.124422
