19
Iteration:    82charge 0 multiplicity 1
 C        -3.385853         0.241221         2.629169
 C        -2.469148         0.101684         1.414753
 C        -3.037274        -0.571610         0.180763
 C        -1.942006        -1.171929         0.964019
 C        -0.476773        -1.054331         0.476442
 C        -0.257804         0.127585        -0.363616
 O        -0.068047         0.008497        -1.530827
 O        -0.426234         1.260681         0.384157
 C        -1.298279         1.093965         1.521169
 H        -4.372683        -0.245326         2.367621
 H        -2.951626        -0.285738         3.565029
 H        -3.628811         1.308008         2.930510
 H        -4.054499        -1.088335         0.175967
 H        -2.760298        -0.075106        -0.733701
 H        -2.095855        -2.073781         1.699340
 H         0.155040        -1.059821         1.377146
 H        -0.189626        -1.846288        -0.229098
 H        -0.787540         0.800024         2.508272
 H        -1.764644         2.098152         1.697904
