19
Iteration:  3040charge 0 multiplicity 1
 C        -3.074736         0.165609         2.921465
 C        -2.486635         0.025139         1.472157
 C        -2.946132        -0.576818         0.218048
 C        -1.875541        -1.325192         1.025111
 C        -0.426615        -1.294122         0.537435
 C        -0.276711         0.145034        -0.336463
 O         0.381630         0.147182        -1.322937
 O        -0.954967         1.311811         0.008595
 C        -1.710585         1.356440         1.197589
 H        -4.186327         0.162527         3.015554
 H        -2.640220        -0.693644         3.479210
 H        -2.765931         1.058402         3.444443
 H        -3.955439        -1.089221         0.354663
 H        -2.889723        -0.196289        -0.774379
 H        -2.091631        -2.066261         1.776477
 H         0.329424        -1.290578         1.404922
 H        -0.197793        -2.134874        -0.212974
 H        -1.155647         1.792270         2.068047
 H        -2.478637         2.199684         0.930704
