19
Iteration:   780charge 0 multiplicity 1
 C        -2.916322         0.316936         2.904062
 C        -2.529813         0.088561         1.467336
 C        -3.339997        -1.068784         0.884613
 C        -1.809250        -1.126353         0.989539
 C        -1.041457        -0.970047        -0.238329
 C        -0.078999         0.138016        -0.289297
 O         0.859443         0.081010        -1.007521
 O        -0.569018         1.216950         0.469734
 C        -1.996749         1.326257         0.575618
 H        -3.693985         1.171733         2.905250
 H        -3.397702        -0.621165         3.331451
 H        -2.062859         0.803170         3.555775
 H        -3.910226        -1.671107         1.671620
 H        -3.854273        -1.131340        -0.103428
 H        -1.287219        -1.764181         1.689587
 H        -0.456214        -1.836439        -0.604217
 H        -1.581781        -0.725685        -1.137109
 H        -2.084623         2.291834         1.063109
 H        -2.503118         1.296889        -0.372575
