19
Iteration:  1520
 C        -2.953139         0.285621         2.929173
 C        -2.435561         0.033643         1.488256
 C        -3.164589        -0.602423         0.341808
 C        -1.913030        -1.243885         0.952448
 C        -0.473126        -1.163177         0.511244
 C        -0.216556         0.067285        -0.312068
 O         0.538216         0.094857        -1.245495
 O        -0.971113         1.207738        -0.068131
 C        -1.812569         1.282583         1.124211
 H        -3.187781         1.372138         2.938685
 H        -3.888930        -0.266207         2.949427
 H        -2.306043         0.016626         3.765915
 H        -3.971560        -1.192551         0.630826
 H        -3.284662         0.068357        -0.519411
 H        -2.146148        -2.201931         1.408751
 H         0.329051        -1.107716         1.429323
 H        -0.147047        -1.994007        -0.194493
 H        -1.175922         1.429615         2.049552
 H        -2.437181         2.151291         1.019924
