19
Iteration:  3229
 C        -3.164011         0.120406         2.892119
 C        -2.487191         0.070174         1.488548
 C        -3.110622        -0.544314         0.281160
 C        -1.947601        -1.275104         1.065952
 C        -0.594995        -1.224684         0.391388
 C        -0.232843         0.095745        -0.427624
 O         0.517657         0.158468        -1.355279
 O        -0.841328         1.286198         0.018371
 C        -1.590331         1.283528         1.352570
 H        -3.279124         1.095466         3.250303
 H        -4.147396        -0.369942         2.930196
 H        -2.509057        -0.295890         3.691224
 H        -4.149854        -0.885257         0.486757
 H        -3.014978        -0.092551        -0.681723
 H        -2.072438        -2.180739         1.709609
 H         0.265041        -1.108864         1.115257
 H        -0.399524        -2.088456        -0.210513
 H        -0.774607         1.265521         2.127671
 H        -1.973119         2.276707         1.321554
