19
Iteration:  1763
 C        -3.321264         0.211803         2.705916
 C        -2.541747         0.035149         1.492921
 C        -3.123352        -0.826728         0.407005
 C        -1.820926        -1.246432         1.139042
 C        -0.469828        -1.032610         0.528479
 C        -0.272659         0.145936        -0.461197
 O         0.368088         0.028151        -1.507450
 O        -0.769467         1.393562         0.091742
 C        -1.490719         1.226857         1.307004
 H        -3.949871         1.089398         2.608370
 H        -3.823925        -0.666640         3.149800
 H        -2.492522         0.491365         3.412942
 H        -4.110437        -1.105992         0.777595
 H        -3.061668        -0.292603        -0.584066
 H        -1.835909        -2.027899         1.872363
 H         0.239834        -0.866412         1.296627
 H        -0.053710        -1.869900        -0.056498
 H        -0.763809         1.162251         2.144481
 H        -2.007410         2.207086         1.475161
