19
Iteration:  4800
 C        -3.196656         0.187532         2.881987
 C        -2.425432         0.111243         1.465212
 C        -3.100365        -0.474306         0.242540
 C        -2.111421        -1.316226         0.924612
 C        -0.667970        -1.254787         0.363621
 C        -0.283190         0.078109        -0.380586
 O         0.331510         0.139759        -1.489151
 O        -0.548607         1.285014         0.267644
 C        -1.408869         1.217827         1.427616
 H        -3.766189         1.199070         2.874898
 H        -4.063026        -0.502282         3.121129
 H        -2.582632         0.330434         3.816769
 H        -4.099915        -0.916684         0.431596
 H        -2.990066        -0.149342        -0.778008
 H        -2.424335        -2.241233         1.454659
 H         0.052143        -1.404251         1.158572
 H        -0.538279        -2.083515        -0.375143
 H        -0.746917         1.189427         2.289688
 H        -1.797367         2.228427         1.333729
