19
Iteration:  1406charge 0 multiplicity 1
 C        -3.177079         0.340952         2.910596
 C        -2.439835         0.108365         1.552126
 C        -3.075948        -0.678496         0.382500
 C        -1.883989        -1.189857         1.008019
 C        -0.481339        -1.230357         0.416914
 C        -0.255289        -0.039820        -0.487901
 O         0.408791         0.191036        -1.456470
 O        -0.700901         1.124484         0.249591
 C        -1.779386         1.344364         1.128235
 H        -4.104741         0.861017         2.768929
 H        -3.353881        -0.541706         3.539219
 H        -2.504762         1.007166         3.499528
 H        -3.874884        -1.414178         0.539208
 H        -2.919120        -0.367158        -0.683035
 H        -2.177795        -1.997370         1.703941
 H         0.286550        -1.131732         1.350626
 H        -0.197061        -2.174977        -0.065735
 H        -1.503428         1.907451         1.966515
 H        -2.620728         1.975529         0.649399
