19
Iteration:  3646
 C        -3.114436         0.190836         2.940018
 C        -2.471918         0.105722         1.527900
 C        -3.193806        -0.263038         0.286637
 C        -2.142431        -1.174704         0.760366
 C        -0.738389        -1.249129         0.307816
 C        -0.190915         0.009038        -0.392310
 O         0.380313         0.100644        -1.451869
 O        -0.535330         1.118851         0.268108
 C        -1.427402         1.188653         1.443716
 H        -3.572489        -0.781913         3.166228
 H        -2.490912         0.520853         3.771165
 H        -3.936262         0.914119         3.099142
 H        -4.167157        -0.666758         0.159757
 H        -2.972071         0.190028        -0.718303
 H        -2.538409        -2.013649         1.318425
 H        -0.006734        -1.428858         1.163472
 H        -0.478925        -2.171591        -0.290449
 H        -0.759921         1.191480         2.334695
 H        -2.001535         2.080596         1.330615
