19
Iteration:  1278
 C        -3.206594         0.241331         2.785025
 C        -2.356640         0.014062         1.609152
 C        -3.053491        -0.593803         0.379844
 C        -1.938279        -1.257504         1.135258
 C        -0.551618        -1.069915         0.526130
 C        -0.363724         0.112500        -0.463915
 O         0.506808         0.108709        -1.280569
 O        -1.009269         1.230539        -0.161626
 C        -1.449560         1.203281         1.247980
 H        -3.999580         1.017898         2.480354
 H        -3.785321        -0.700258         2.947820
 H        -2.672388         0.575132         3.710119
 H        -4.034922        -1.014419         0.432510
 H        -2.812844        -0.221592        -0.667961
 H        -1.921202        -2.107414         1.808168
 H         0.242744        -0.979571         1.204868
 H        -0.369577        -1.979399         0.004700
 H        -0.495620         1.046042         1.917277
 H        -1.843166         2.172920         1.484124
