19
Iteration:  2304
 C        -3.177471         0.259903         2.936570
 C        -2.399725         0.093537         1.598346
 C        -3.003163        -0.680867         0.495360
 C        -1.840510        -1.304716         0.975539
 C        -0.532624        -1.239703         0.282214
 C        -0.273514         0.108352        -0.387732
 O         0.655626         0.235279        -1.130353
 O        -1.176509         1.168652        -0.174879
 C        -1.598197         1.323792         1.167619
 H        -3.484527         1.360091         3.077878
 H        -4.190686        -0.076536         2.675687
 H        -2.745384        -0.210244         3.818747
 H        -3.954500        -1.342031         0.638317
 H        -2.928623        -0.181254        -0.466618
 H        -1.916712        -2.090449         1.707332
 H         0.364647        -1.622208         0.930539
 H        -0.708596        -1.975016        -0.546576
 H        -0.844380         1.613483         1.934587
 H        -2.119169         2.375099         1.184020
