19
Iteration:  1757
 C        -3.247833         0.172414         2.738236
 C        -2.554105         0.026347         1.471515
 C        -3.066284        -0.803971         0.392838
 C        -1.832147        -1.276429         1.118596
 C        -0.499737        -0.992652         0.516213
 C        -0.309946         0.081215        -0.415154
 O         0.318166         0.049398        -1.454116
 O        -0.704795         1.379611         0.064439
 C        -1.522957         1.297603         1.272127
 H        -3.948472         1.054535         2.735455
 H        -3.907229        -0.661685         3.014150
 H        -2.517141         0.491917         3.478792
 H        -4.118734        -1.006202         0.671010
 H        -2.965513        -0.383901        -0.559906
 H        -1.889379        -2.173615         1.777522
 H         0.164223        -0.675012         1.485124
 H        -0.106013        -1.871895         0.018684
 H        -0.728625         1.176222         2.029050
 H        -2.165895         2.167068         1.329216
