19
Iteration:  1944
 C        -3.183591         0.191602         2.910721
 C        -2.532697         0.170433         1.577776
 C        -3.140441        -0.722371         0.486633
 C        -1.824180        -1.141672         1.172437
 C        -0.603238        -1.280376         0.248812
 C        -0.246590         0.054529        -0.493218
 O         0.699416         0.264585        -1.199074
 O        -0.995497         1.203153        -0.132091
 C        -1.578232         1.306711         1.197789
 H        -3.935512         1.066087         2.956146
 H        -3.692128        -0.786879         2.973661
 H        -2.464211         0.354575         3.730709
 H        -3.944079        -1.413300         0.785318
 H        -2.995994        -0.606767        -0.586078
 H        -2.171365        -2.037177         1.754927
 H         0.422555        -1.426415         0.776614
 H        -0.864644        -2.115842        -0.455055
 H        -0.778030         1.464120         1.956103
 H        -2.291528         2.118536         1.079556
