19
Iteration:  2941charge 0 multiplicity 1
 C        -3.343551         0.283347         2.713742
 C        -2.371994        -0.009198         1.516288
 C        -2.853857        -0.699979         0.291154
 C        -1.719820        -1.311096         1.180703
 C        -0.317697        -1.288549         0.547469
 C        -0.366604         0.100726        -0.389543
 O         0.244097         0.168812        -1.403864
 O        -1.054930         1.337821        -0.006829
 C        -1.538654         1.305187         1.350827
 H        -3.490883         1.427641         2.827916
 H        -4.390914        -0.051296         2.562495
 H        -2.926592         0.058707         3.671093
 H        -3.662370        -1.371970         0.209598
 H        -2.555901        -0.064094        -0.618071
 H        -2.029519        -2.190439         1.658596
 H         0.533741        -1.072894         1.286847
 H        -0.108332        -2.033966        -0.315506
 H        -0.787674         1.506958         2.113854
 H        -2.237095         2.155284         1.530384
