19
Iteration:  2877charge 0 multiplicity 1
 C        -3.149826        -0.053542         2.853152
 C        -2.566009         0.103836         1.506106
 C        -3.148359        -0.647395         0.370624
 C        -1.857598        -1.178102         1.128512
 C        -0.464937        -0.985763         0.545061
 C        -0.183696         0.156557        -0.338310
 O         0.420668         0.024441        -1.394915
 O        -0.832037         1.295819        -0.066743
 C        -1.626215         1.348160         1.173830
 H        -4.089662         0.527748         3.040085
 H        -3.266089        -1.162242         2.863757
 H        -2.427656         0.271516         3.649010
 H        -4.037617        -1.267147         0.512993
 H        -3.112077        -0.280595        -0.697846
 H        -2.041097        -2.052569         1.707535
 H         0.214523        -1.000064         1.398183
 H        -0.174163        -1.874829        -0.111966
 H        -1.003491         1.665581         2.076968
 H        -2.286103         2.165620         0.959805
