19
Iteration:  2209
 C        -3.198749         0.189978         2.905640
 C        -2.440328         0.043787         1.533690
 C        -2.982793        -0.605052         0.271277
 C        -1.852518        -1.319244         1.055076
 C        -0.453331        -1.207193         0.513471
 C        -0.307131         0.050614        -0.372831
 O         0.262658         0.173761        -1.421859
 O        -0.670444         1.269967         0.127586
 C        -1.731512         1.345456         1.157836
 H        -4.255909         0.395421         2.668227
 H        -3.206746        -0.756988         3.486138
 H        -2.688753         1.033080         3.376787
 H        -3.997595        -1.076538         0.385685
 H        -2.601230        -0.361354        -0.689269
 H        -2.020111        -2.158001         1.776901
 H         0.260490        -1.186139         1.299407
 H        -0.216747        -2.000500        -0.282647
 H        -1.380691         2.037642         1.941016
 H        -2.533825         2.030820         0.862455
