19
Iteration:  4216charge 0 multiplicity 1
 C        -3.214943         0.213908         2.845342
 C        -2.569903         0.045657         1.597911
 C        -3.357392        -0.366695         0.407375
 C        -2.116721        -1.192465         0.847642
 C        -0.733377        -1.217034         0.206322
 C        -0.193130         0.110960        -0.421116
 O         0.631473         0.206124        -1.327547
 O        -0.583561         1.185049         0.149101
 C        -1.319015         1.032943         1.358011
 H        -3.141819        -0.781439         3.351805
 H        -2.595881         0.852969         3.489543
 H        -4.307603         0.482046         2.867402
 H        -4.327127        -0.734137         0.845783
 H        -3.597066         0.172889        -0.623819
 H        -2.369822        -2.096572         1.459660
 H         0.079999        -1.415379         1.036378
 H        -0.634628        -1.999013        -0.610445
 H        -0.623014         0.873809         2.199162
 H        -1.945358         1.900179         1.624058
