19
Iteration:  2704charge 0 multiplicity 1
 C        -2.979809         0.087505         2.971866
 C        -2.528698         0.038001         1.543429
 C        -3.345225        -0.623326         0.469744
 C        -1.987434        -1.227577         0.963276
 C        -0.488001        -1.126703         0.431651
 C        -0.184806         0.135481        -0.383622
 O         0.710099         0.109368        -1.206241
 O        -0.886538         1.330488        -0.147892
 C        -1.756308         1.274262         1.070593
 H        -3.890919         0.628861         3.070399
 H        -3.248906        -0.923559         3.341378
 H        -2.085208         0.439130         3.567519
 H        -4.333428        -1.217121         0.690765
 H        -3.473771        -0.165127        -0.518505
 H        -2.116283        -2.047110         1.646747
 H         0.127062        -1.062260         1.346896
 H        -0.133732        -1.971323        -0.167257
 H        -1.068575         1.601117         1.901353
 H        -2.468091         2.029699         0.862509
