19
Iteration:    77
 C        -3.390935         0.204953         2.637987
 C        -2.486675         0.115577         1.416165
 C        -3.079106        -0.581336         0.209195
 C        -1.910047        -1.149325         0.937199
 C        -0.468823        -1.057542         0.478363
 C        -0.261041         0.085096        -0.373056
 O        -0.057969         0.019412        -1.566440
 O        -0.419398         1.244725         0.392617
 C        -1.301675         1.108132         1.545916
 H        -4.335926        -0.189606         2.312549
 H        -3.082994        -0.297355         3.509493
 H        -3.564944         1.229531         2.884730
 H        -4.010117        -1.022695         0.112780
 H        -2.743620         0.004668        -0.668618
 H        -2.014395        -1.861586         1.726899
 H        -0.031580        -0.827606         1.485175
 H        -0.113126        -1.937604        -0.072123
 H        -0.820543         0.881482         2.461457
 H        -1.630386         2.121471         1.691296
