19
Iteration:   163charge 0 multiplicity 1
 C        -3.340168         0.098279         2.950620
 C        -2.543836         0.122128         1.596575
 C        -3.272604        -0.476555         0.305310
 C        -2.105543        -1.174415         0.959017
 C        -0.665320        -1.098208         0.323557
 C        -0.127390         0.084395        -0.403664
 O         0.551715         0.021305        -1.445937
 O        -0.621645         1.282510         0.063929
 C        -1.326861         1.224788         1.384488
 H        -3.527311        -1.058870         3.237082
 H        -2.964369         0.543398         3.871565
 H        -4.364150         0.494564         2.778049
 H        -4.293034        -0.813012         0.399589
 H        -3.009072        -0.017478        -0.649148
 H        -2.256197        -2.114957         1.375258
 H         0.011038        -1.361964         1.182912
 H        -0.433110        -1.955061        -0.340786
 H        -0.566810         0.845611         2.174392
 H        -1.651549         2.254983         1.571854
