19
Iteration:  4428
 C        -3.263189         0.091008         2.781102
 C        -2.444069         0.113194         1.494055
 C        -3.132758        -0.465168         0.313209
 C        -2.020389        -1.165229         1.026624
 C        -0.688625        -1.150832         0.358241
 C        -0.195422         0.001012        -0.430253
 O         0.353233         0.143117        -1.519578
 O        -0.623793         1.205694         0.215972
 C        -1.412855         1.223788         1.481274
 H        -3.784476         1.078449         2.915769
 H        -4.124284        -0.657553         2.774345
 H        -2.689252        -0.189693         3.669044
 H        -4.159156        -0.714005         0.434357
 H        -2.931067        -0.132421        -0.711302
 H        -2.274632        -2.032789         1.591470
 H         0.118071        -1.056008         1.189017
 H        -0.478396        -2.030005        -0.259156
 H        -0.598725         1.134616         2.185427
 H        -1.622113         2.282909         1.659410
