19
Iteration:   777charge 0 multiplicity 1
 C        -2.905603         0.294634         2.892723
 C        -2.530780         0.123883         1.462220
 C        -3.360336        -1.075672         0.863252
 C        -1.800035        -1.115962         1.015971
 C        -1.018110        -0.986254        -0.218315
 C        -0.105724         0.138277        -0.292171
 O         0.865216         0.083046        -1.019465
 O        -0.573438         1.207665         0.456421
 C        -1.974383         1.342125         0.598076
 H        -3.770129         1.116555         2.952693
 H        -3.398115        -0.607560         3.340134
 H        -2.107125         0.843550         3.503116
 H        -3.900011        -1.650102         1.603698
 H        -3.800922        -1.113768        -0.074530
 H        -1.341141        -1.806396         1.639412
 H        -0.401445        -1.839988        -0.595019
 H        -1.634114        -0.864427        -1.120613
 H        -2.145399         2.325303         1.159920
 H        -2.564969         1.329647        -0.344646
