19
Iteration:  2202
 C        -3.231359         0.158971         2.870124
 C        -2.425166         0.092326         1.529234
 C        -2.982889        -0.705797         0.271374
 C        -1.887857        -1.275775         1.073592
 C        -0.409998        -1.223562         0.499239
 C        -0.318819         0.074358        -0.391727
 O         0.253534         0.139187        -1.461122
 O        -0.684411         1.309618         0.162161
 C        -1.703832         1.376434         1.186327
 H        -4.259267         0.402907         2.708831
 H        -3.082131        -0.745750         3.491456
 H        -2.888175         0.995076         3.551983
 H        -3.968337        -1.094757         0.244892
 H        -2.482431        -0.370410        -0.673065
 H        -2.156020        -1.884032         1.958239
 H         0.347458        -1.343284         1.290478
 H        -0.307295        -1.986127        -0.222109
 H        -1.241120         1.739080         2.125025
 H        -2.314011         2.180706         0.733180
