19
Iteration:  3383charge 0 multiplicity 1
 C        -3.330068         0.132492         2.891231
 C        -2.426617         0.070894         1.632111
 C        -3.166085        -0.405580         0.276609
 C        -1.959008        -1.182296         0.988964
 C        -0.556501        -1.210367         0.358968
 C        -0.214726         0.049113        -0.440123
 O         0.367838         0.156303        -1.499607
 O        -0.644661         1.158246         0.127112
 C        -1.450361         1.205675         1.419909
 H        -3.046334        -0.564593         3.653915
 H        -3.293340         1.171375         3.278709
 H        -4.443720         0.116406         2.715151
 H        -4.098754        -0.912150         0.194155
 H        -2.897467         0.221816        -0.649573
 H        -2.267594        -1.993849         1.603593
 H         0.088147        -1.343669         1.182770
 H        -0.403338        -2.018825        -0.321893
 H        -0.770579         1.274525         2.225248
 H        -1.954400         2.131457         1.427492
