19
Iteration:  3054
 C        -3.073172         0.126208         2.941018
 C        -2.391209         0.093846         1.576015
 C        -3.007227        -0.698983         0.211312
 C        -1.897129        -1.209347         1.043869
 C        -0.523979        -1.157503         0.429502
 C        -0.243304         0.058036        -0.310798
 O         0.441848         0.181310        -1.273867
 O        -0.994389         1.217556        -0.062447
 C        -1.710533         1.361591         1.200511
 H        -4.103899        -0.054790         2.935925
 H        -2.704833        -0.568289         3.720481
 H        -2.954943         1.194074         3.357069
 H        -4.019217        -1.052373        -0.011168
 H        -2.497309        -0.184535        -0.562587
 H        -2.206842        -2.187432         1.510934
 H         0.205870        -1.218600         1.319395
 H        -0.235722        -1.972257        -0.206879
 H        -0.903961         1.649937         1.945083
 H        -2.350149         2.164119         1.158858
