19
Iteration:  3607
 C        -3.085559         0.064996         2.863693
 C        -2.421930         0.229986         1.497972
 C        -3.162258        -0.310629         0.253538
 C        -2.131688        -1.193861         0.894729
 C        -0.805809        -1.183050         0.261410
 C        -0.206440         0.043717        -0.328908
 O         0.442068        -0.028275        -1.313910
 O        -0.733209         1.291046         0.142808
 C        -1.305086         1.186655         1.438883
 H        -4.112937        -0.364020         2.625636
 H        -2.654661        -0.689221         3.534713
 H        -3.287195         1.057204         3.292955
 H        -4.102546        -0.826065         0.460129
 H        -3.105120         0.010741        -0.837801
 H        -2.321032        -2.059802         1.618425
 H        -0.180141        -1.589757         1.020405
 H        -0.768081        -1.807982        -0.631182
 H        -0.605479         0.805011         2.209406
 H        -1.539374         2.248597         1.755656
