19
Iteration:  1985charge 0 multiplicity 1
 C        -3.283630         0.345485         2.833594
 C        -2.406168         0.005455         1.603249
 C        -3.154994        -0.761015         0.537463
 C        -1.848973        -1.289122         1.137567
 C        -0.548339        -1.216790         0.260564
 C        -0.250960         0.177933        -0.430601
 O         0.655048         0.194951        -1.244872
 O        -0.993339         1.308947        -0.135832
 C        -1.558130         1.232462         1.226870
 H        -4.293878         0.738607         2.694750
 H        -3.406835        -0.613868         3.357693
 H        -2.741764         0.979168         3.543554
 H        -4.036900        -1.293148         0.897366
 H        -3.321762        -0.348095        -0.479665
 H        -1.847077        -2.367610         1.479824
 H         0.243089        -1.583956         0.827506
 H        -0.643414        -1.835000        -0.595665
 H        -0.658017         1.144570         1.901057
 H        -2.026812         2.228586         1.324438
