19
Iteration:  1014charge 0 multiplicity 1
 C        -2.536794         0.431566         2.962644
 C        -2.477844         0.027007         1.498707
 C        -3.486619        -0.939539         0.870709
 C        -1.963267        -1.304886         0.963057
 C        -1.008347        -1.067046        -0.362684
 C        -0.109052         0.170154        -0.283739
 O         1.085312         0.202612        -0.644452
 O        -0.771739         1.278134         0.145098
 C        -2.189010         1.142165         0.605575
 H        -2.805102         1.503222         2.937012
 H        -3.237771        -0.177754         3.578612
 H        -1.548642         0.455723         3.459693
 H        -4.223218        -1.457008         1.404319
 H        -3.756075        -0.671411        -0.135972
 H        -1.707960        -2.108366         1.604135
 H        -0.456010        -1.995119        -0.580694
 H        -1.646143        -0.942309        -1.254654
 H        -2.355960         2.138855         1.108177
 H        -2.767280         1.087846        -0.263228
