19
Iteration:  2765charge 0 multiplicity 1
 C        -3.087134         0.198120         2.887350
 C        -2.433680         0.117712         1.538906
 C        -3.135390        -0.841146         0.459620
 C        -1.909360        -1.259385         1.124455
 C        -0.682255        -1.190492         0.224396
 C        -0.240345         0.179019        -0.357496
 O         0.735263         0.179473        -1.108386
 O        -1.065550         1.282570        -0.145281
 C        -1.622456         1.347236         1.116999
 H        -3.598885         1.219038         3.220419
 H        -3.759222        -0.660514         3.104074
 H        -2.301936         0.015971         3.650878
 H        -4.008482        -1.304774         0.790845
 H        -2.979821        -0.504616        -0.569610
 H        -1.850296        -2.077912         1.843038
 H         0.214176        -1.649679         0.743045
 H        -0.734509        -1.801660        -0.732953
 H        -0.846036         1.519537         1.875335
 H        -2.287271         2.283128         1.088358
