19
Iteration:   817
 C        -2.645454         0.525122         2.924397
 C        -2.503813        -0.018875         1.479251
 C        -3.409572        -1.083506         0.905744
 C        -1.916200        -1.259641         0.910130
 C        -1.126798        -1.007477        -0.430470
 C        -0.132988         0.182501        -0.382992
 O         1.006171         0.256897        -0.679760
 O        -0.676651         1.159859         0.393723
 C        -2.033227         1.188894         0.574307
 H        -3.087195         1.472950         2.887855
 H        -3.333431         0.066823         3.607694
 H        -1.689239         0.619836         3.341687
 H        -3.924758        -1.662908         1.631647
 H        -3.875305        -0.947412        -0.125248
 H        -1.472717        -2.033173         1.673600
 H        -0.675453        -1.979018        -0.583255
 H        -1.901298        -0.906509        -1.280046
 H        -2.316995         2.169723         1.022448
 H        -2.515236         1.243613        -0.441201
