19
Iteration:  2870
 C        -3.113775        -0.059006         2.863472
 C        -2.502680         0.109240         1.556112
 C        -3.099835        -0.671752         0.322360
 C        -1.907356        -1.188279         1.097873
 C        -0.510788        -1.063635         0.547353
 C        -0.190912         0.169554        -0.357266
 O         0.438929         0.036548        -1.367722
 O        -0.881407         1.306420        -0.026727
 C        -1.619150         1.378342         1.152289
 H        -4.039244         0.456571         2.889999
 H        -3.385398        -1.085079         3.158496
 H        -2.394298         0.471496         3.557542
 H        -3.989927        -1.231460         0.443813
 H        -3.014794        -0.200770        -0.707329
 H        -1.960406        -2.138897         1.730741
 H         0.267995        -1.036832         1.306292
 H        -0.403796        -1.873783        -0.099675
 H        -1.082911         1.972808         1.939173
 H        -2.348228         2.124141         0.789295
