19
Iteration:  3698
 C        -3.317656         0.124556         2.818734
 C        -2.393969         0.144688         1.540118
 C        -3.046224        -0.361551         0.221267
 C        -2.065423        -1.188486         1.047588
 C        -0.828473        -1.228692         0.210895
 C        -0.275670        -0.002839        -0.439400
 O         0.331544         0.087504        -1.460038
 O        -0.551932         1.153914         0.282434
 C        -1.236389         1.260974         1.501218
 H        -3.438265        -0.766918         3.404393
 H        -2.977980         0.853403         3.627892
 H        -4.343900         0.457374         2.558354
 H        -4.140509        -0.304176         0.226493
 H        -2.765035         0.095931        -0.766991
 H        -2.428710        -1.987220         1.636514
 H         0.104004        -1.471114         0.815285
 H        -0.916105        -1.986277        -0.574076
 H        -0.574929         1.025840         2.316721
 H        -1.781573         2.269280         1.679308
