19
Iteration:  2967
 C        -3.420273         0.170617         2.714331
 C        -2.395634         0.084465         1.492682
 C        -2.884713        -0.775399         0.379648
 C        -1.740223        -1.188442         1.215518
 C        -0.427688        -1.108155         0.433897
 C        -0.270053         0.129770        -0.371473
 O         0.240661         0.144822        -1.473500
 O        -0.892246         1.239376         0.075287
 C        -1.530507         1.279417         1.306680
 H        -3.737331         1.196012         2.759986
 H        -4.328834        -0.417895         2.485465
 H        -2.992873         0.003042         3.771735
 H        -3.943178        -1.166792         0.519663
 H        -2.653083        -0.555748        -0.624027
 H        -1.731130        -1.968037         2.049582
 H         0.380470        -1.145642         1.130201
 H        -0.317991        -1.777652        -0.380711
 H        -0.855966         1.484044         2.174833
 H        -2.133584         2.131813         1.311370
