19
Iteration:   204charge 0 multiplicity 1
 C        -2.933623         0.146955         2.970240
 C        -2.473914         0.080428         1.484650
 C        -3.276711        -0.370184         0.288302
 C        -2.107255        -1.218020         0.792826
 C        -0.729857        -1.333957         0.185736
 C        -0.217125         0.018786        -0.257471
 O         0.675924         0.103924        -1.100332
 O        -0.870730         1.192443         0.049432
 C        -1.538320         1.374028         1.294350
 H        -3.573398        -0.738130         3.351234
 H        -2.028908         0.215795         3.563891
 H        -3.477747         1.083237         3.097907
 H        -4.302885        -0.710817         0.410448
 H        -3.039418         0.189547        -0.658278
 H        -2.341189        -2.083775         1.331057
 H        -0.024108        -1.679334         0.914046
 H        -0.617414        -2.045840        -0.675317
 H        -0.790292         1.386086         2.096418
 H        -2.127196         2.300264         1.170839
