19
Iteration:  1833
 C        -3.275942         0.185535         2.834991
 C        -2.359410         0.045784         1.588743
 C        -3.028466        -0.668754         0.397444
 C        -1.817237        -1.276403         1.083343
 C        -0.536660        -1.156774         0.373070
 C        -0.267851         0.161655        -0.363348
 O         0.484993         0.074338        -1.304551
 O        -0.976487         1.242528        -0.065428
 C        -1.584532         1.389521         1.198193
 H        -4.073047         0.961741         2.711133
 H        -3.676613        -0.787470         3.173240
 H        -2.664459         0.482562         3.715121
 H        -3.949779        -1.161476         0.674696
 H        -2.797695        -0.192203        -0.540949
 H        -2.026724        -2.070122         1.837589
 H         0.352433        -1.370848         1.136385
 H        -0.474460        -1.978411        -0.336699
 H        -0.822230         1.722466         1.901706
 H        -2.326889         2.193616         1.178924
