19
Iteration:  3949
 C        -3.207569         0.094614         2.994556
 C        -2.482383         0.155866         1.617149
 C        -3.250345        -0.246089         0.372198
 C        -2.096243        -1.141403         0.855472
 C        -0.709004        -1.326993         0.214289
 C        -0.197647        -0.039246        -0.466597
 O         0.623460         0.115262        -1.357547
 O        -0.674881         1.185161         0.135218
 C        -1.446763         1.222812         1.380769
 H        -3.548878        -0.931019         3.074952
 H        -2.392254         0.541937         3.632667
 H        -4.006485         0.844967         3.120792
 H        -4.283862        -0.671701         0.326621
 H        -2.990173         0.341766        -0.509020
 H        -2.518608        -2.133044         1.248717
 H         0.022105        -1.779635         1.000780
 H        -0.819500        -2.118340        -0.564294
 H        -0.703834         1.264179         2.214071
 H        -2.008772         2.237026         1.285225
