19
Iteration:  1248charge 0 multiplicity 1
 C        -3.166883         0.122794         2.925321
 C        -2.490009         0.223965         1.546945
 C        -3.137337        -0.566791         0.333508
 C        -1.912145        -1.115498         0.996207
 C        -0.455772        -1.170421         0.506541
 C        -0.244854         0.049275        -0.356645
 O         0.560159         0.071459        -1.292140
 O        -1.040050         1.145940        -0.178303
 C        -1.531826         1.339460         1.243200
 H        -4.257088         0.450440         3.027149
 H        -3.210341        -0.970758         3.097900
 H        -2.583963         0.613857         3.746314
 H        -4.046554        -1.068858         0.671325
 H        -3.168572        -0.248649        -0.769577
 H        -2.027360        -1.920963         1.718961
 H         0.316287        -1.186705         1.360266
 H        -0.437618        -2.160118        -0.089265
 H        -0.729067         1.056477         1.946062
 H        -1.680415         2.404320         1.351975
