19
Iteration:  2248charge 0 multiplicity 1
 C        -3.179775         0.150147         2.947699
 C        -2.552863         0.065531         1.498659
 C        -3.237837        -0.706313         0.389628
 C        -1.821861        -1.237497         1.040029
 C        -0.453757        -1.138264         0.384497
 C        -0.165715         0.101047        -0.389132
 O         0.507481         0.112028        -1.380946
 O        -0.785719         1.291086        -0.019882
 C        -1.728378         1.365066         1.231773
 H        -3.878474         1.021069         3.055399
 H        -3.630591        -0.747420         3.342695
 H        -2.470562         0.393940         3.759154
 H        -4.054985        -1.318283         0.843575
 H        -3.235767        -0.489390        -0.711876
 H        -1.936139        -2.141442         1.637718
 H         0.273591        -1.128422         1.284974
 H        -0.239958        -2.071923        -0.112919
 H        -1.095642         1.650999         2.119415
 H        -2.357646         2.225039         0.833301
