19
Iteration:  1072
 C        -2.654617         0.264471         2.891674
 C        -2.630848         0.196451         1.347196
 C        -3.384101        -0.896782         0.703292
 C        -1.936071        -1.133945         1.028760
 C        -0.809361        -1.252895         0.076794
 C        -0.152668         0.116615        -0.363676
 O         0.863902         0.220682        -1.097886
 O        -0.620308         1.173801         0.436243
 C        -2.159460         1.361104         0.640552
 H        -3.607980         0.573203         3.296716
 H        -2.453302        -0.644317         3.413600
 H        -1.930996         0.950445         3.215071
 H        -3.981077        -1.660063         1.303372
 H        -3.810458        -0.728572        -0.290314
 H        -2.123426        -1.845955         1.844738
 H         0.092601        -1.863186         0.540803
 H        -1.218051        -1.851155        -0.819921
 H        -2.240044         2.220439         1.400728
 H        -2.642634         1.721367        -0.309312
