19
Iteration:  3672charge 0 multiplicity 1
 C        -3.303351         0.203136         2.888324
 C        -2.414124         0.067945         1.595819
 C        -3.104225        -0.143537         0.372833
 C        -2.001054        -1.215856         0.805874
 C        -0.623486        -1.379885         0.219601
 C        -0.217467        -0.032310        -0.373358
 O         0.318290         0.059993        -1.489754
 O        -0.528973         1.164570         0.286971
 C        -1.432437         1.272339         1.433842
 H        -3.598211        -0.752692         3.422408
 H        -3.014049         0.899668         3.677058
 H        -4.285816         0.629653         2.607825
 H        -4.127717        -0.617581         0.496000
 H        -3.214739         0.588732        -0.395078
 H        -2.632128        -2.094402         1.160114
 H         0.205467        -1.761810         0.753495
 H        -0.654607        -2.064740        -0.633958
 H        -0.797043         1.227860         2.348321
 H        -2.104454         2.122744         1.380781
