19
Iteration:  1400charge 0 multiplicity 1
 C        -3.181631         0.339725         2.938305
 C        -2.494740         0.094232         1.529428
 C        -3.084519        -0.691301         0.330858
 C        -1.880789        -1.164483         1.041798
 C        -0.434086        -1.303033         0.423184
 C        -0.201249        -0.054803        -0.427024
 O         0.365877         0.208915        -1.498030
 O        -0.672706         1.153494         0.274582
 C        -1.784016         1.380252         1.084305
 H        -4.135802         0.920142         2.791004
 H        -3.283022        -0.622034         3.470020
 H        -2.456359         0.832415         3.586841
 H        -3.976915        -1.271602         0.675890
 H        -3.088368        -0.362498        -0.687707
 H        -2.071610        -1.960319         1.747483
 H         0.126416        -1.136110         1.300155
 H        -0.190033        -2.249034        -0.066726
 H        -1.433455         2.021653         2.007888
 H        -2.606435         1.857287         0.583257
