19
Iteration:   879charge 0 multiplicity 1
 C        -2.126804         0.093973         2.897827
 C        -2.518386         0.115143         1.430272
 C        -3.545483        -0.832788         0.885221
 C        -2.085394        -1.263307         0.868236
 C        -1.040170        -1.099968        -0.256229
 C        -0.188593         0.172183        -0.192141
 O         1.021639         0.194325        -0.243256
 O        -0.846264         1.418509        -0.090687
 C        -2.205795         1.226638         0.424987
 H        -2.877919         0.459582         3.651295
 H        -1.497851        -0.800595         3.138221
 H        -1.264489         0.888081         3.005991
 H        -4.205922        -1.402405         1.518057
 H        -4.116466        -0.625111        -0.107745
 H        -1.830200        -2.109103         1.566790
 H        -0.359946        -1.936255        -0.237687
 H        -1.547600        -1.142307        -1.187890
 H        -2.648534         2.133541         0.688315
 H        -2.680206         0.838143        -0.466914
