19
Iteration:  4119charge 0 multiplicity 1
 C        -3.284344         0.157223         2.887609
 C        -2.524047         0.105319         1.531750
 C        -3.253209        -0.408141         0.264410
 C        -2.017413        -1.099375         0.884635
 C        -0.625538        -1.127831         0.377048
 C        -0.169470         0.094645        -0.397245
 O         0.346749         0.076623        -1.509412
 O        -0.527535         1.180245         0.233544
 C        -1.355660         1.068681         1.457330
 H        -4.131967        -0.479853         2.602521
 H        -2.596889        -0.410995         3.516998
 H        -3.576040         1.170321         3.294020
 H        -4.275161        -0.842390         0.150214
 H        -3.123213         0.357713        -0.572817
 H        -2.324095        -1.957612         1.473154
 H         0.037445        -1.272141         1.209305
 H        -0.508742        -1.973015        -0.276186
 H        -0.800264         0.808715         2.365969
 H        -1.807711         2.041209         1.467936
