19
Iteration:  3593
 C        -3.238238         0.113235         2.875618
 C        -2.415988         0.127665         1.575080
 C        -3.182653        -0.286557         0.356944
 C        -2.076925        -1.141332         0.883331
 C        -0.710674        -1.303693         0.216997
 C        -0.225148         0.056234        -0.358072
 O         0.524445         0.018680        -1.332654
 O        -0.772168         1.226189         0.081870
 C        -1.317314         1.220011         1.452944
 H        -4.352763        -0.031272         2.732471
 H        -2.807833        -0.692644         3.483909
 H        -3.119535         1.056148         3.485826
 H        -4.151797        -0.508752         0.714348
 H        -3.054564         0.339375        -0.614135
 H        -2.521589        -2.124065         1.168235
 H         0.075185        -1.669829         0.851169
 H        -0.799904        -1.984416        -0.678977
 H        -0.384492         1.100920         2.122034
 H        -1.674452         2.206024         1.600170
