19
Iteration:  4604charge 0 multiplicity 1
 C        -3.201449         0.194536         2.957067
 C        -2.486172         0.086673         1.562626
 C        -3.242256        -0.467142         0.379716
 C        -2.013372        -1.233080         0.897268
 C        -0.734046        -1.206934         0.172082
 C        -0.227483         0.041330        -0.488860
 O         0.587741         0.123594        -1.332321
 O        -0.687334         1.257722         0.158571
 C        -1.461887         1.204483         1.370541
 H        -3.947842         1.024176         2.960431
 H        -3.704047        -0.685987         3.379976
 H        -2.499181         0.522842         3.742651
 H        -4.095889        -1.059319         0.676124
 H        -3.133439        -0.076112        -0.640803
 H        -2.258767        -2.055827         1.528711
 H         0.112522        -1.493294         0.845059
 H        -0.771470        -2.003187        -0.604794
 H        -0.677722         1.081458         2.218994
 H        -1.787301         2.245335         1.351960
