19
Iteration:  1811charge 0 multiplicity 1
 C        -3.323577         0.337769         2.740137
 C        -2.381836         0.028209         1.639295
 C        -2.937487        -0.548928         0.385908
 C        -1.768978        -1.275939         1.246590
 C        -0.477051        -1.280898         0.374212
 C        -0.313758         0.053607        -0.485414
 O         0.458084         0.241996        -1.384841
 O        -1.024907         1.166449        -0.032835
 C        -1.584372         1.250354         1.339876
 H        -4.091437         0.929215         2.200581
 H        -3.754854        -0.637861         3.030915
 H        -2.989464         0.817513         3.670266
 H        -3.881804        -1.066437         0.431296
 H        -2.552338        -0.302857        -0.562752
 H        -2.109097        -2.149509         1.846818
 H         0.563659        -1.323931         0.955440
 H        -0.402138        -2.123572        -0.314078
 H        -0.757191         1.504540         1.993017
 H        -2.278577         2.085988         1.429476
