19
Iteration:  3161
 C        -3.059100         0.169043         2.907134
 C        -2.426209         0.054204         1.496587
 C        -3.111081        -0.595447         0.311605
 C        -1.863166        -1.235214         1.133436
 C        -0.654700        -1.210904         0.274463
 C        -0.254840         0.093229        -0.323421
 O         0.559686         0.195808        -1.260899
 O        -0.813027         1.201817         0.062660
 C        -1.772198         1.319083         1.173188
 H        -2.286512        -0.162750         3.606539
 H        -3.449303         1.190493         3.161349
 H        -3.797733        -0.599641         3.132959
 H        -4.073216        -0.962084         0.489757
 H        -3.026010        -0.146752        -0.708671
 H        -2.147552        -2.198152         1.626392
 H         0.166840        -1.550766         0.924653
 H        -0.719585        -1.800884        -0.648997
 H        -1.098724         1.698736         1.947183
 H        -2.576373         2.081293         0.855523
