19
Iteration:    79
 C        -3.394851         0.219029         2.630896
 C        -2.478802         0.105979         1.411235
 C        -3.064098        -0.580380         0.198924
 C        -1.925667        -1.150240         0.943930
 C        -0.470241        -1.054166         0.474476
 C        -0.257633         0.103651        -0.373636
 O        -0.063703         0.012285        -1.547784
 O        -0.422262         1.250533         0.390293
 C        -1.295413         1.098461         1.538010
 H        -4.276447        -0.178823         2.347942
 H        -3.019002        -0.302120         3.552186
 H        -3.600068         1.275568         2.911894
 H        -4.004731        -1.049836         0.130533
 H        -2.746048        -0.023365        -0.667418
 H        -2.048220        -1.984808         1.772810
 H         0.031193        -0.918368         1.446329
 H        -0.157299        -1.854397        -0.141258
 H        -0.836611         0.859595         2.466238
 H        -1.692121         2.098279         1.697981
