19
Iteration:   657charge 0 multiplicity 1
 C        -3.076336         0.134495         2.916741
 C        -2.483021         0.131566         1.472662
 C        -3.159968        -0.634895         0.372570
 C        -1.878145        -1.190819         1.012048
 C        -0.471328        -1.145571         0.465570
 C        -0.253888         0.108650        -0.345093
 O         0.654851         0.140756        -1.178682
 O        -1.159487         1.155783        -0.203576
 C        -1.571229         1.337325         1.200524
 H        -3.440658         1.114843         3.394315
 H        -4.111997        -0.292454         2.853020
 H        -2.325193        -0.340047         3.643706
 H        -4.029902        -1.084521         0.691208
 H        -3.142205        -0.271322        -0.639857
 H        -2.088343        -1.919802         1.738580
 H         0.343689        -1.486552         1.167595
 H        -0.441670        -1.968836        -0.212585
 H        -0.727328         1.317691         1.970564
 H        -2.003441         2.336316         1.247006
