19
Iteration:   588
 C        -3.375420         0.212388         2.668481
 C        -2.476972         0.141207         1.416958
 C        -3.032211        -0.830626         0.342682
 C        -1.758797        -1.196239         1.167508
 C        -0.407142        -1.110960         0.459933
 C        -0.285888         0.122505        -0.347928
 O         0.113173         0.061992        -1.475711
 O        -0.647287         1.319052         0.183128
 C        -1.515560         1.274734         1.331204
 H        -3.522907         1.318900         3.035276
 H        -4.394955        -0.014438         2.346043
 H        -2.914805        -0.303788         3.477929
 H        -4.041462        -1.281657         0.575194
 H        -2.823305        -0.605107        -0.708931
 H        -1.732610        -1.971110         2.041032
 H         0.370018        -1.266799         1.162883
 H        -0.221140        -1.868588        -0.337094
 H        -0.806873         1.237346         2.156010
 H        -1.910680         2.341360         1.351272
