19
Iteration:    95
 C        -3.371194         0.281423         2.642004
 C        -2.460443         0.094100         1.445376
 C        -2.929863        -0.513974         0.113342
 C        -1.928759        -1.313941         1.025212
 C        -0.507177        -1.217315         0.492413
 C        -0.299278         0.116440        -0.304291
 O        -0.050755         0.080752        -1.490370
 O        -0.469313         1.340924         0.328077
 C        -1.351691         1.149632         1.502048
 H        -4.384296        -0.378430         2.615616
 H        -2.826759        -0.054024         3.551783
 H        -3.621803         1.348114         2.774249
 H        -3.986298        -0.825483         0.367635
 H        -2.781947        -0.355099        -0.980921
 H        -2.307428        -2.261865         1.267688
 H         0.346609        -1.376987         1.181097
 H        -0.472991        -2.029629        -0.309684
 H        -0.558831         0.875473         2.311063
 H        -1.670670         2.197402         1.715449
