19
Iteration:  3671charge 0 multiplicity 1
 C        -3.296409         0.203033         2.893849
 C        -2.413167         0.052069         1.594606
 C        -3.113562        -0.147757         0.362450
 C        -2.009262        -1.203050         0.809043
 C        -0.618693        -1.372305         0.220525
 C        -0.211068        -0.040527        -0.370686
 O         0.318258         0.061058        -1.490869
 O        -0.532967         1.163169         0.291233
 C        -1.433869         1.278674         1.426914
 H        -3.626548        -0.752192         3.422419
 H        -3.014010         0.906289         3.653584
 H        -4.274583         0.649619         2.633570
 H        -4.104478        -0.590779         0.528452
 H        -3.230128         0.631037        -0.381645
 H        -2.623874        -2.118013         1.147442
 H         0.207350        -1.780966         0.762119
 H        -0.614855        -2.074113        -0.646969
 H        -0.801096         1.222585         2.356734
 H        -2.078545         2.109500         1.365599
