19
Iteration:  3051charge 0 multiplicity 1
 C        -3.079219         0.140915         2.946804
 C        -2.403671         0.091094         1.576715
 C        -2.995326        -0.683217         0.196868
 C        -1.893705        -1.231784         1.039921
 C        -0.507646        -1.209832         0.449811
 C        -0.256919         0.069384        -0.288937
 O         0.427008         0.180340        -1.292710
 O        -0.988270         1.243009        -0.052321
 C        -1.703923         1.377776         1.197260
 H        -4.166387        -0.022023         2.930591
 H        -2.624574        -0.600722         3.649403
 H        -2.835414         1.129131         3.326108
 H        -4.057790        -1.026876        -0.015448
 H        -2.492741        -0.228364        -0.601414
 H        -2.147979        -2.162294         1.524785
 H         0.212520        -1.229416         1.352528
 H        -0.135360        -2.039154        -0.238961
 H        -0.919540         1.618292         1.955093
 H        -2.538528         2.175161         1.100897
