19
Iteration:  2124
 C        -3.328885         0.368976         2.710590
 C        -2.405275        -0.031766         1.556678
 C        -2.898748        -0.683172         0.282263
 C        -1.746702        -1.252385         1.168046
 C        -0.318215        -1.060765         0.527150
 C        -0.305881         0.075919        -0.409529
 O         0.222448         0.122471        -1.489989
 O        -1.003010         1.246221         0.079930
 C        -1.510204         1.157027         1.352137
 H        -3.920444         1.239960         2.481784
 H        -4.185630        -0.396542         2.605815
 H        -3.022667         0.396780         3.798859
 H        -3.976163        -1.064792         0.276559
 H        -2.795443        -0.083265        -0.600949
 H        -1.982848        -2.204570         1.720935
 H         0.456940        -0.981101         1.382270
 H         0.095920        -1.936672        -0.030034
 H        -0.736296         1.137782         2.193084
 H        -2.048726         2.141417         1.366522
