19
Iteration:  2734
 C        -2.995583         0.228785         2.988519
 C        -2.466786         0.062852         1.664339
 C        -3.157712        -0.561063         0.385202
 C        -1.914234        -1.175603         0.963188
 C        -0.530417        -1.292369         0.301607
 C        -0.156032         0.059183        -0.375301
 O         0.712837         0.287969        -1.183764
 O        -1.052062         1.089633        -0.033500
 C        -1.833714         1.263468         1.034056
 H        -3.586062         1.127353         3.303068
 H        -3.472752        -0.720578         3.296649
 H        -2.162091         0.420382         3.673228
 H        -4.033646        -1.184941         0.312831
 H        -3.187571         0.081060        -0.524408
 H        -2.106942        -2.050182         1.564314
 H         0.176896        -1.434435         1.085314
 H        -0.405396        -2.117326        -0.456075
 H        -1.270375         1.875177         1.808170
 H        -2.631466         1.974972         0.761224
