19
Iteration:  2001
 C        -3.149351         0.307538         2.896006
 C        -2.451892         0.047721         1.569884
 C        -3.065325        -0.779459         0.419445
 C        -1.866998        -1.295618         1.059527
 C        -0.629405        -1.175346         0.273267
 C        -0.303741         0.072952        -0.469955
 O         0.599774         0.229359        -1.236324
 O        -0.951916         1.226087        -0.031784
 C        -1.609638         1.263247         1.247858
 H        -4.084397         0.800879         2.482297
 H        -3.508086        -0.410745         3.653897
 H        -2.602946         1.117023         3.429254
 H        -4.065433        -1.234848         0.531905
 H        -2.922307        -0.329022        -0.570310
 H        -1.916133        -1.994728         1.847502
 H         0.355214        -1.115389         0.937810
 H        -0.337862        -2.103526        -0.347973
 H        -0.873085         1.564863         2.025251
 H        -2.258711         2.159862         1.231554
