19
Iteration:  1642charge 0 multiplicity 1
 C        -3.297899         0.352830         2.761101
 C        -2.501839         0.101737         1.510463
 C        -3.045573        -0.813382         0.399442
 C        -1.824526        -1.229891         1.072177
 C        -0.482862        -1.095213         0.405944
 C        -0.280644         0.158623        -0.411730
 O         0.408458         0.100535        -1.395997
 O        -0.936062         1.253031        -0.024973
 C        -1.479037         1.200359         1.423494
 H        -4.026137         1.109926         2.443723
 H        -3.852503        -0.479090         3.170464
 H        -2.575382         0.875015         3.408782
 H        -3.680662        -1.678692         0.707228
 H        -2.896727        -0.535385        -0.619051
 H        -1.924492        -1.989771         1.869505
 H         0.308479        -1.085392         1.294138
 H        -0.306189        -2.051573        -0.193320
 H        -0.571305         0.964111         1.938207
 H        -1.857535         2.153693         1.663469
