19
Iteration:  1386charge 0 multiplicity 1
 C        -3.147855         0.232587         2.887860
 C        -2.564638         0.150131         1.475227
 C        -3.177614        -0.720393         0.378335
 C        -1.819406        -1.221055         1.117071
 C        -0.429641        -1.254160         0.455861
 C        -0.143132         0.069827        -0.325189
 O         0.241964         0.142243        -1.475644
 O        -0.524762         1.192152         0.239557
 C        -1.823812         1.391369         1.008326
 H        -4.002423         0.920882         2.965991
 H        -3.574607        -0.717632         3.206763
 H        -2.427450         0.616929         3.595943
 H        -4.198871        -1.182805         0.501811
 H        -3.035231        -0.177845        -0.588299
 H        -2.013097        -2.077563         1.770127
 H         0.473795        -1.484072         1.186542
 H        -0.397303        -2.116562        -0.214866
 H        -1.502449         1.984427         1.918037
 H        -2.282345         2.140213         0.353469
