19
Iteration:  1612
 C        -3.332081         0.328988         2.812068
 C        -2.384441        -0.004227         1.612124
 C        -2.997952        -0.602362         0.413546
 C        -1.798257        -1.272672         1.215775
 C        -0.508726        -1.249674         0.397450
 C        -0.268273         0.041273        -0.407079
 O         0.438020         0.280349        -1.383893
 O        -0.878209         1.165739        -0.078734
 C        -1.631022         1.232650         1.255240
 H        -4.112689         0.926706         2.346355
 H        -3.812479        -0.426550         3.485819
 H        -2.797445         1.055346         3.507060
 H        -3.947981        -1.180925         0.476204
 H        -2.762638        -0.307740        -0.651600
 H        -2.111687        -2.116635         1.812490
 H         0.535387        -1.382200         0.961095
 H        -0.621055        -2.117056        -0.272807
 H        -0.757894         1.596757         1.964167
 H        -2.281793         2.162679         1.068398
