19
Iteration:   948charge 0 multiplicity 1
 C        -2.232532         0.426229         2.785204
 C        -2.444567         0.059923         1.418230
 C        -3.290388        -1.148664         0.922759
 C        -1.847472        -1.217435         0.848971
 C        -1.267227        -0.876401        -0.504568
 C        -0.243840         0.172387        -0.176945
 O         0.918135        -0.084958        -0.166196
 O        -0.818332         1.407706         0.160614
 C        -2.239473         1.263489         0.382446
 H        -2.923230         1.211280         3.087446
 H        -2.335207        -0.463865         3.432774
 H        -1.225972         0.739464         3.052871
 H        -3.753427        -1.733455         1.750594
 H        -3.872826        -1.245710         0.061651
 H        -1.317920        -1.923549         1.520541
 H        -0.771737        -1.678028        -1.027490
 H        -2.006746        -0.477410        -1.209981
 H        -2.536933         2.259262         0.718460
 H        -2.814892         1.030839        -0.477772
