19
Iteration:  1983charge 0 multiplicity 1
 C        -3.291287         0.336331         2.830260
 C        -2.409472         0.035515         1.600793
 C        -3.172810        -0.751120         0.558594
 C        -1.851556        -1.297204         1.144391
 C        -0.545809        -1.215667         0.262000
 C        -0.231065         0.193016        -0.425615
 O         0.652418         0.192394        -1.244327
 O        -0.998029         1.308648        -0.146443
 C        -1.548214         1.205342         1.227362
 H        -4.257313         0.706578         2.687414
 H        -3.443574        -0.611522         3.359209
 H        -2.754303         0.946283         3.556989
 H        -4.023759        -1.309231         0.865368
 H        -3.340051        -0.415353        -0.510119
 H        -1.840947        -2.325442         1.472393
 H         0.284456        -1.638241         0.766745
 H        -0.599366        -1.813001        -0.646329
 H        -0.655605         1.213072         1.885513
 H        -1.998408         2.200778         1.326963
