19
Iteration:   574charge 0 multiplicity 1
 C        -3.338281         0.135496         2.634102
 C        -2.459748         0.114549         1.378083
 C        -2.864615        -0.785649         0.288278
 C        -1.838045        -1.203101         1.245936
 C        -0.483138        -1.171837         0.572302
 C        -0.335309         0.121287        -0.402002
 O         0.014587         0.032820        -1.523387
 O        -0.536587         1.407785         0.222588
 C        -1.521850         1.373649         1.329629
 H        -3.440426         1.094133         3.081911
 H        -4.330701        -0.363947         2.486919
 H        -2.757050        -0.414233         3.429640
 H        -3.900600        -1.171268         0.409099
 H        -2.630356        -0.744901        -0.829930
 H        -2.106716        -1.950075         1.978385
 H         0.375070        -1.021835         1.225370
 H        -0.399665        -2.079292        -0.110629
 H        -0.994185         1.347306         2.284788
 H        -2.137506         2.285787         1.185249
