19
Iteration:   485
 C        -3.297869         0.171839         2.648402
 C        -2.417957         0.124621         1.505304
 C        -2.949454        -0.646674         0.232846
 C        -1.938176        -1.252442         1.170130
 C        -0.506131        -1.132853         0.632190
 C        -0.374728         0.080606        -0.403837
 O         0.226144         0.100740        -1.503704
 O        -0.791235         1.314912         0.071117
 C        -1.361904         1.219612         1.395548
 H        -4.305253         0.129508         2.440449
 H        -3.021892        -0.609037         3.468610
 H        -3.216114         1.090545         3.370057
 H        -4.005275        -0.974144         0.138971
 H        -2.501836        -0.265908        -0.707056
 H        -2.308020        -2.029096         1.766996
 H         0.317042        -0.870705         1.347623
 H        -0.142268        -1.975662         0.046642
 H        -0.549472         0.932538         2.140564
 H        -1.842716         2.184260         1.620026
