19
Iteration:  2491charge 0 multiplicity 1
 C        -3.297304         0.160076         2.675348
 C        -2.467707         0.135348         1.479656
 C        -2.960302        -0.741467         0.341583
 C        -1.813265        -1.193147         1.232117
 C        -0.479360        -1.075207         0.506277
 C        -0.239130         0.126286        -0.424830
 O         0.293145         0.046142        -1.505112
 O        -0.922048         1.298046         0.043437
 C        -1.461328         1.275964         1.390719
 H        -3.951498         1.085553         2.825705
 H        -4.099774        -0.555965         2.866353
 H        -2.730856         0.106203         3.604968
 H        -3.936624        -1.081121         0.569013
 H        -2.812268        -0.463236        -0.653521
 H        -1.919414        -2.146570         1.773681
 H         0.347456        -1.134470         1.208697
 H        -0.382759        -1.961341        -0.099602
 H        -0.684090         1.110061         2.191169
 H        -1.916188         2.320165         1.566410
