19
Iteration:  3912
 C        -3.209888         0.046950         2.799553
 C        -2.439262         0.137906         1.581694
 C        -3.282521        -0.316571         0.449361
 C        -2.109570        -1.127629         0.982347
 C        -0.819148        -1.220686         0.197685
 C        -0.256912         0.091790        -0.475249
 O         0.651872        -0.033248        -1.298480
 O        -0.694790         1.314997         0.059687
 C        -1.302047         1.218862         1.425919
 H        -3.421948        -0.985809         3.137071
 H        -2.677176         0.236486         3.729372
 H        -4.208184         0.526014         2.705798
 H        -4.273858        -0.668724         0.677003
 H        -3.119223        -0.060316        -0.625314
 H        -2.324588        -2.009749         1.475250
 H        -0.049592        -1.717983         0.937453
 H        -0.911895        -1.925517        -0.630925
 H        -0.437381         0.955207         2.073905
 H        -1.611127         2.219551         1.689995
