19
Iteration:  2739
 C        -2.992118         0.220413         2.990363
 C        -2.482995         0.070477         1.610238
 C        -3.167437        -0.553417         0.375170
 C        -1.888147        -1.160976         1.026852
 C        -0.525140        -1.310230         0.285831
 C        -0.174028         0.070239        -0.364415
 O         0.694152         0.295106        -1.164201
 O        -1.035539         1.098824        -0.088755
 C        -1.835777         1.251273         1.083802
 H        -3.543157         1.149816         3.150333
 H        -3.541240        -0.651931         3.331303
 H        -2.173858         0.360845         3.743422
 H        -4.083028        -1.237518         0.397879
 H        -2.961407         0.062616        -0.494667
 H        -2.130293        -2.069459         1.615683
 H         0.291010        -1.646007         1.017450
 H        -0.472649        -2.014493        -0.529282
 H        -1.292479         1.772762         1.876265
 H        -2.604958         1.955581         0.731580
