19
Iteration:  2592
 C        -3.263712         0.194607         2.731069
 C        -2.487297         0.071584         1.445193
 C        -3.036495        -0.750187         0.308910
 C        -1.851403        -1.169081         1.228698
 C        -0.466321        -1.050168         0.499028
 C        -0.275732         0.094791        -0.410658
 O         0.285095         0.116732        -1.503546
 O        -0.800562         1.264283         0.123973
 C        -1.490484         1.239848         1.302996
 H        -3.955118         1.093078         2.892151
 H        -3.935313        -0.711971         2.761207
 H        -2.680195         0.200679         3.710871
 H        -4.063309        -1.043770         0.477001
 H        -2.864557        -0.487858        -0.787768
 H        -1.924754        -2.001779         1.965674
 H         0.315158        -0.960402         1.272958
 H        -0.274326        -2.004791        -0.077324
 H        -0.695176         1.067066         2.086122
 H        -1.985311         2.217244         1.388350
