19
Iteration:  3887
 C        -3.127117         0.259511         2.934971
 C        -2.464707         0.113861         1.546096
 C        -3.121388        -0.386066         0.278131
 C        -2.096558        -1.177599         0.880182
 C        -0.809149        -1.310838         0.152237
 C        -0.279501         0.026540        -0.378721
 O         0.524902         0.121631        -1.237592
 O        -0.737227         1.201477         0.134270
 C        -1.354153         1.167610         1.404319
 H        -3.625762        -0.664915         3.347764
 H        -2.316231         0.209672         3.645044
 H        -3.856143         1.077433         3.032482
 H        -4.179135        -0.581997         0.231294
 H        -2.739653         0.130606        -0.611810
 H        -2.305299        -2.164638         1.419749
 H        -0.152024        -1.783185         0.854536
 H        -0.812688        -1.985082        -0.752989
 H        -0.517086         1.127114         2.113049
 H        -1.829191         2.187341         1.457155
