19
Iteration:  4421
 C        -3.347286         0.080345         2.818780
 C        -2.478064         0.130785         1.561580
 C        -3.120075        -0.429778         0.328060
 C        -1.988347        -1.186174         1.048044
 C        -0.675897        -1.176334         0.327552
 C        -0.220504         0.029395        -0.451037
 O         0.390073         0.128023        -1.536880
 O        -0.610455         1.218598         0.178273
 C        -1.380731         1.230840         1.488473
 H        -3.894963         1.052427         2.760628
 H        -3.882797        -0.823225         2.511059
 H        -2.574679        -0.085957         3.615269
 H        -4.221842        -0.758654         0.522360
 H        -2.988914         0.160166        -0.615902
 H        -2.185404        -2.098247         1.634752
 H         0.001649        -1.249547         1.169989
 H        -0.446848        -2.106434        -0.240417
 H        -0.652278         1.006140         2.323882
 H        -1.855787         2.248559         1.481577
