19
Iteration:   543
 C        -3.376819         0.110072         2.712986
 C        -2.404357         0.091165         1.480086
 C        -2.879580        -0.539116         0.236233
 C        -1.745653        -1.185575         1.012853
 C        -0.289167        -1.116082         0.636021
 C        -0.285603         0.029451        -0.283755
 O        -0.163852         0.000046        -1.525584
 O        -0.544146         1.231988         0.291337
 C        -1.617133         1.345688         1.231421
 H        -3.997731         1.078548         2.705579
 H        -4.074107        -0.703259         2.642946
 H        -2.734462         0.199649         3.534334
 H        -3.912729        -0.971662         0.344845
 H        -2.612256        -0.140172        -0.805477
 H        -2.108600        -2.067942         1.612031
 H         0.374914        -0.857347         1.378388
 H         0.113635        -1.976448         0.051821
 H        -1.131648         1.739188         2.110640
 H        -2.178477         2.189989         0.753325
