19
Iteration:  2110charge 0 multiplicity 1
 C        -3.323304         0.283075         2.722198
 C        -2.487462         0.073835         1.513732
 C        -2.953433        -0.638600         0.285874
 C        -1.700272        -1.208520         1.053459
 C        -0.277288        -1.122280         0.571490
 C        -0.250067         0.120977        -0.354959
 O         0.205870         0.061909        -1.443442
 O        -1.019046         1.205797         0.012870
 C        -1.581168         1.244608         1.413081
 H        -3.380885         1.404809         2.791502
 H        -4.242943        -0.319802         2.885657
 H        -2.653120         0.052285         3.577602
 H        -3.691127        -1.399217         0.326307
 H        -2.658725        -0.254335        -0.713491
 H        -1.845599        -2.127526         1.563387
 H         0.451371        -0.925622         1.287674
 H        -0.075405        -2.026879        -0.071703
 H        -0.668672         1.122801         2.087264
 H        -2.128514         2.189382         1.577246
