19
Iteration:  1862charge 0 multiplicity 1
 C        -3.086901         0.087381         2.947937
 C        -2.571037         0.108022         1.447043
 C        -3.189183        -0.766884         0.402806
 C        -1.927540        -1.096181         1.044404
 C        -0.563279        -1.093619         0.520128
 C        -0.172417         0.121079        -0.438297
 O         0.615582         0.113132        -1.368590
 O        -0.815715         1.242881        -0.033607
 C        -1.741023         1.314518         1.129893
 H        -3.722760         0.858970         3.333629
 H        -3.522728        -0.907557         3.211928
 H        -2.108334         0.027321         3.492104
 H        -4.171893        -1.079712         0.951350
 H        -3.344249        -0.473849        -0.621080
 H        -2.039574        -1.861401         1.805895
 H         0.054279        -1.041062         1.336314
 H        -0.394770        -2.093891         0.128882
 H        -0.959624         1.546478         1.919923
 H        -2.331291         2.277602         1.100958
