19
Iteration:  2761charge 0 multiplicity 1
 C        -3.082760         0.196507         2.906768
 C        -2.462485         0.100471         1.554725
 C        -3.125831        -0.790095         0.420821
 C        -1.880931        -1.285737         1.124121
 C        -0.659465        -1.202020         0.245599
 C        -0.219805         0.145102        -0.343480
 O         0.721623         0.201671        -1.116323
 O        -1.054978         1.253207        -0.156420
 C        -1.671310         1.377551         1.116402
 H        -3.453916         1.134887         3.213038
 H        -3.733323        -0.619392         3.179342
 H        -2.251685         0.137943         3.650044
 H        -4.117438        -1.197161         0.706275
 H        -3.079602        -0.482816        -0.645517
 H        -1.866600        -2.135197         1.848320
 H         0.270988        -1.683814         0.682781
 H        -0.813973        -1.759890        -0.667218
 H        -0.879623         1.566451         1.844504
 H        -2.274149         2.301879         1.138527
