19
Iteration:  1426
 C        -3.226112         0.329967         2.868436
 C        -2.487264        -0.010573         1.568934
 C        -3.087676        -0.684498         0.408994
 C        -1.840121        -1.267535         1.168789
 C        -0.539369        -1.168979         0.321668
 C        -0.269166         0.082073        -0.430163
 O         0.475597         0.067080        -1.350395
 O        -0.768807         1.289664         0.043471
 C        -1.656563         1.303466         1.155081
 H        -4.199212         0.708053         2.583829
 H        -3.273016        -0.598162         3.455828
 H        -2.614831         1.005431         3.525262
 H        -4.079567        -0.967682         0.640157
 H        -2.976471        -0.098173        -0.523747
 H        -1.926354        -2.198114         1.777283
 H         0.252967        -1.187793         1.031637
 H        -0.394050        -1.981955        -0.404683
 H        -1.091227         1.617931         1.990354
 H        -2.490879         2.018922         0.978438
