19
Iteration:  1987
 C        -3.272115         0.349732         2.839355
 C        -2.409206        -0.017972         1.605709
 C        -3.137341        -0.770288         0.515188
 C        -1.843510        -1.286645         1.124734
 C        -0.559460        -1.209027         0.259219
 C        -0.266861         0.160237        -0.434863
 O         0.656071         0.198835        -1.245304
 O        -0.988581         1.305848        -0.124776
 C        -1.564023         1.258000         1.226587
 H        -4.326109         0.779162         2.675996
 H        -3.378998        -0.615764         3.365560
 H        -2.728509         1.018784         3.535057
 H        -4.052028        -1.274614         0.932491
 H        -3.281296        -0.293834        -0.437480
 H        -1.874108        -2.359780         1.517260
 H         0.270124        -1.538565         0.920669
 H        -0.693833        -1.891651        -0.578898
 H        -0.682086         1.099909         1.909923
 H        -2.062540         2.236732         1.332213
