19
Iteration:  4438
 C        -3.206689         0.133244         2.781493
 C        -2.456391         0.184644         1.512531
 C        -3.161442        -0.484341         0.222351
 C        -2.042193        -1.212250         0.943424
 C        -0.574896        -1.205096         0.388348
 C        -0.301027         0.115622        -0.393038
 O         0.300121         0.126055        -1.445724
 O        -0.636882         1.215195         0.234538
 C        -1.339039         1.191748         1.422826
 H        -3.444364         1.126282         3.195078
 H        -4.181242        -0.398125         2.805480
 H        -2.623918        -0.185181         3.646445
 H        -4.120904        -0.860531         0.398073
 H        -2.831537        -0.306262        -0.792019
 H        -2.231286        -2.064461         1.578235
 H         0.172392        -1.354069         1.244102
 H        -0.468121        -2.115724        -0.196352
 H        -0.793148         0.905058         2.344442
 H        -1.872299         2.153313         1.501410
