19
Iteration:  2443
 C        -3.228823         0.359246         2.822196
 C        -2.435118         0.044256         1.598497
 C        -3.163802        -0.800578         0.460330
 C        -1.858459        -1.278475         1.124000
 C        -0.507457        -1.198267         0.328847
 C        -0.217682         0.140669        -0.475131
 O         0.570263         0.221982        -1.437930
 O        -0.825588         1.232773         0.073229
 C        -1.724029         1.252443         1.270612
 H        -4.005142         1.125394         2.687911
 H        -3.854401        -0.455160         3.221160
 H        -2.643520         0.665210         3.731647
 H        -4.072918        -1.452349         0.756638
 H        -3.036214        -0.602236        -0.668099
 H        -1.914483        -2.123637         1.812889
 H         0.433022        -1.356613         0.829592
 H        -0.578235        -1.978665        -0.438850
 H        -1.045692         1.564783         2.166748
 H        -2.329687         2.146043         1.066157
