19
Iteration:   254
 C        -2.988412         0.136332         3.021134
 C        -2.462676         0.201527         1.507958
 C        -3.374594        -0.548149         0.553283
 C        -2.094508        -1.150688         0.851832
 C        -0.869095        -1.300468        -0.050402
 C        -0.172966         0.059378        -0.395899
 O         0.942823         0.107569        -0.884717
 O        -0.866178         1.227434        -0.113942
 C        -1.584097         1.336320         1.187366
 H        -4.011198         0.095502         2.973028
 H        -2.620084        -0.871041         3.414506
 H        -2.677940         0.976405         3.714039
 H        -4.114289        -0.978504         1.189232
 H        -3.665313        -0.172648        -0.448013
 H        -2.206195        -2.163297         1.479626
 H        -0.017525        -1.889241         0.434929
 H        -1.026618        -1.833136        -0.973445
 H        -0.836580         1.493810         1.975329
 H        -2.243741         2.214341         1.007113
