19
Iteration:  2914
 C        -3.316766         0.196382         2.814273
 C        -2.469198         0.017935         1.521986
 C        -3.023227        -0.718900         0.322032
 C        -1.823723        -1.232585         1.117115
 C        -0.409723        -0.958509         0.583401
 C        -0.211995         0.136438        -0.399032
 O         0.344564         0.115621        -1.501217
 O        -0.924588         1.199762        -0.017474
 C        -1.536332         1.255514         1.319096
 H        -3.760137         1.127501         3.081985
 H        -4.203678        -0.442378         2.831111
 H        -2.669565        -0.184105         3.667328
 H        -3.911423        -1.384969         0.455558
 H        -2.839929        -0.301845        -0.635806
 H        -1.922232        -2.311757         1.481417
 H         0.208358        -0.659866         1.414732
 H         0.025822        -1.766329         0.082622
 H        -0.765965         1.356928         2.126286
 H        -2.158426         2.202976         1.323219
