19
Iteration:  1740charge 0 multiplicity 1
 C        -3.191174         0.155829         2.840590
 C        -2.390978         0.111747         1.512659
 C        -3.039409        -0.722463         0.225647
 C        -1.894592        -1.257089         1.077701
 C        -0.474539        -1.127680         0.639003
 C        -0.322764         0.132942        -0.362965
 O         0.248511         0.045218        -1.456204
 O        -0.738515         1.329636         0.083601
 C        -1.602378         1.330626         1.189138
 H        -3.869778         1.009905         2.922350
 H        -3.690869        -0.819018         2.887362
 H        -2.480820         0.096825         3.702744
 H        -3.886258        -1.368036         0.383596
 H        -2.726123        -0.418887        -0.849583
 H        -2.156462        -2.030715         1.819915
 H         0.152362        -0.916751         1.458854
 H         0.065633        -1.931491         0.061887
 H        -1.109124         1.725471         2.109523
 H        -2.236712         2.207147         0.884897
