19
Iteration:  4678
 C        -3.033123         0.142113         2.961930
 C        -2.496634         0.043566         1.588190
 C        -3.225177        -0.284576         0.283142
 C        -2.089772        -1.196319         0.878195
 C        -0.661972        -1.231628         0.305435
 C        -0.189904         0.037576        -0.476206
 O         0.615379         0.168099        -1.295911
 O        -0.783346         1.170845         0.059601
 C        -1.562190         1.111620         1.393864
 H        -3.320758         1.207655         3.345390
 H        -4.029369        -0.281210         3.276248
 H        -2.284004        -0.060871         3.820209
 H        -4.136578        -0.848956         0.284402
 H        -3.183164         0.401802        -0.539218
 H        -2.471261        -2.093027         1.368482
 H        -0.037738        -1.487085         1.134834
 H        -0.579343        -2.074594        -0.368713
 H        -0.811881         1.355733         2.059740
 H        -2.109367         2.023605         1.067697
