19
Iteration:   628
 C        -3.347635         0.375782         2.880062
 C        -2.463755        -0.047338         1.641119
 C        -3.025782        -0.605564         0.412149
 C        -1.841254        -1.357858         1.124609
 C        -0.444054        -1.145096         0.438480
 C        -0.240053         0.102208        -0.500449
 O         0.509674         0.250095        -1.395839
 O        -0.979833         1.168107        -0.086739
 C        -1.535832         1.176045         1.256523
 H        -3.346844         1.411977         3.013359
 H        -4.382528         0.086146         2.701851
 H        -3.225358        -0.162401         3.818795
 H        -4.087931        -0.958031         0.325912
 H        -2.618569        -0.064288        -0.471130
 H        -2.036828        -2.244819         1.702236
 H         0.366053        -0.898133         1.170842
 H        -0.108023        -2.105761        -0.074181
 H        -0.844982         1.261249         2.088501
 H        -2.176272         2.038669         1.293351
