19
Iteration:  3003charge 0 multiplicity 1
 C        -3.356483         0.082902         2.918816
 C        -2.508701         0.137204         1.511960
 C        -3.097624        -0.816138         0.381818
 C        -1.815027        -1.256528         1.035510
 C        -0.455020        -1.021168         0.488489
 C        -0.203422         0.150925        -0.451110
 O         0.334586         0.096967        -1.520087
 O        -0.678660         1.294066         0.098559
 C        -1.599229         1.326423         1.248664
 H        -4.319351         0.679028         2.773305
 H        -3.667813        -0.905381         3.264779
 H        -2.762537         0.545460         3.731937
 H        -3.971187        -1.377677         0.652405
 H        -3.056902        -0.464775        -0.689259
 H        -1.936909        -2.017778         1.826744
 H         0.143086        -0.796576         1.357391
 H         0.041434        -1.904071         0.094215
 H        -1.000028         1.587517         2.132592
 H        -2.298314         2.193687         0.866585
