19
Iteration:  1044
 C        -2.573094         0.260559         3.004300
 C        -2.514584         0.131640         1.423312
 C        -3.481299        -0.867606         0.784824
 C        -1.990691        -1.222114         0.953842
 C        -0.868165        -1.182134        -0.114563
 C        -0.154320         0.172722        -0.213616
 O         0.842339         0.205894        -0.832775
 O        -0.633709         1.319927         0.204317
 C        -2.102890         1.203904         0.516402
 H        -3.381216         0.980295         3.332284
 H        -2.743041        -0.726149         3.531254
 H        -1.584782         0.612930         3.504293
 H        -4.282037        -1.463134         1.264985
 H        -3.769431        -0.643181        -0.242446
 H        -2.013103        -2.033842         1.716238
 H        -0.068602        -1.779133         0.212783
 H        -1.070355        -1.561423        -1.091827
 H        -2.369442         2.109831         0.960051
 H        -2.579833         1.174536        -0.475290
