19
Iteration:  1455
 C        -3.226139         0.170367         2.783847
 C        -2.483524         0.156671         1.526569
 C        -3.155160        -0.809634         0.461823
 C        -1.858113        -1.187131         1.214619
 C        -0.625617        -1.169659         0.354161
 C        -0.239811         0.114056        -0.366603
 O         0.572023         0.096886        -1.313750
 O        -0.945464         1.245409        -0.123886
 C        -1.434319         1.432022         1.223048
 H        -4.222133         0.721694         2.659481
 H        -3.575345        -0.870394         2.900980
 H        -2.737361         0.575681         3.682937
 H        -4.069898        -1.155831         0.890226
 H        -3.151566        -0.405477        -0.548012
 H        -1.968360        -1.977996         1.952971
 H         0.187702        -1.597955         0.987653
 H        -0.633526        -1.892272        -0.514904
 H        -0.538786         1.278612         2.007586
 H        -1.805868         2.408793         1.492975
