19
Iteration:  4684charge 0 multiplicity 1
 C        -3.027457         0.207075         2.994535
 C        -2.529222         0.022850         1.595448
 C        -3.241224        -0.334792         0.298584
 C        -2.085846        -1.195650         0.826357
 C        -0.662071        -1.255096         0.322151
 C        -0.228056         0.046609        -0.399806
 O         0.608404         0.188416        -1.302496
 O        -0.748962         1.184284         0.029842
 C        -1.507324         1.100556         1.345961
 H        -3.341964         1.184299         3.263133
 H        -3.913207        -0.405200         3.156657
 H        -2.310407        -0.119659         3.709355
 H        -4.283198        -0.783409         0.362926
 H        -3.276105         0.360971        -0.571381
 H        -2.686158        -2.079412         1.188462
 H         0.105952        -1.353629         1.169845
 H        -0.460929        -2.086258        -0.392144
 H        -0.824645         1.238153         2.302873
 H        -2.140625         2.018418         1.256161
