19
Iteration:  1822charge 0 multiplicity 1
 C        -3.275611         0.238864         2.796678
 C        -2.309950         0.094617         1.656885
 C        -2.905762        -0.660887         0.382204
 C        -1.824997        -1.227801         1.138685
 C        -0.537701        -1.201904         0.372581
 C        -0.287965         0.027335        -0.388802
 O         0.480909         0.148423        -1.340158
 O        -1.030166         1.249747        -0.074922
 C        -1.625147         1.293490         1.295328
 H        -4.119480         0.913888         2.461955
 H        -3.811673        -0.696552         3.046703
 H        -2.825201         0.726627         3.680986
 H        -3.973689        -0.726950         0.559154
 H        -2.866336        -0.370731        -0.640266
 H        -1.855150        -2.287236         1.486027
 H         0.392089        -1.369849         1.130704
 H        -0.492421        -1.954843        -0.406372
 H        -0.894470         1.555633         2.053062
 H        -2.323178         2.111682         1.113444
