19
Iteration:  2041charge 0 multiplicity 1
 C        -3.125390         0.038416         2.923764
 C        -2.509888         0.078258         1.560940
 C        -3.158994        -0.662148         0.350582
 C        -1.849021        -1.104485         1.003240
 C        -0.427641        -1.164139         0.494699
 C        -0.185723         0.134058        -0.319207
 O         0.399257         0.036850        -1.383940
 O        -0.807413         1.270610        -0.021785
 C        -1.715851         1.417269         1.142978
 H        -3.770577         0.933337         2.961900
 H        -3.591734        -0.907502         3.137561
 H        -2.382929         0.218557         3.717279
 H        -3.907657        -1.471666         0.491206
 H        -2.989781        -0.219096        -0.601854
 H        -2.056506        -1.983558         1.694489
 H        -0.014553        -1.259735         1.424809
 H        -0.189358        -1.934662        -0.187848
 H        -1.213660         1.747165         2.075432
 H        -2.445265         2.151069         0.774596
