19
Iteration:  4295charge 0 multiplicity 1
 C        -3.145850         0.018797         2.979403
 C        -2.441272         0.129340         1.591901
 C        -3.165892        -0.319365         0.314674
 C        -2.071221        -1.210634         0.869397
 C        -0.801186        -1.276249         0.206731
 C        -0.222448         0.049114        -0.395299
 O         0.625865         0.128341        -1.272956
 O        -0.739400         1.161938         0.102968
 C        -1.445160         1.356742         1.346279
 H        -4.078489        -0.474692         2.661458
 H        -2.621802        -0.698593         3.657611
 H        -3.432535         1.029073         3.303953
 H        -4.198053        -0.622993         0.524555
 H        -3.074075         0.122950        -0.632859
 H        -2.524318        -2.145932         1.267171
 H         0.057140        -1.588846         0.917241
 H        -0.799622        -2.055666        -0.562135
 H        -0.670617         1.543335         2.172123
 H        -2.076916         2.312678         1.342960
