19
Iteration:   189
 C        -2.992556         0.097967         2.823476
 C        -2.484313         0.173129         1.479162
 C        -3.323157        -0.399727         0.348272
 C        -2.099836        -1.178913         0.880703
 C        -0.714316        -1.243276         0.274340
 C        -0.281478         0.036127        -0.399578
 O         0.647275         0.071791        -1.166142
 O        -0.749403         1.254414         0.085389
 C        -1.477326         1.229904         1.312383
 H        -3.258073        -0.876094         2.961013
 H        -2.329975         0.362631         3.679998
 H        -3.924532         0.654282         3.002085
 H        -4.342552        -0.801428         0.502937
 H        -3.224426         0.120578        -0.617754
 H        -2.419656        -2.106032         1.587654
 H        -0.009140        -1.353799         1.164506
 H        -0.478063        -2.082989        -0.369215
 H        -0.798105         1.072150         2.136306
 H        -1.863086         2.249448         1.503743
