19
Iteration:  3466charge 0 multiplicity 1
 C        -3.221833         0.175442         2.967983
 C        -2.449343         0.092141         1.636359
 C        -3.203206        -0.315891         0.312510
 C        -1.993720        -1.128313         0.867520
 C        -0.568706        -1.320857         0.166067
 C        -0.124835        -0.032867        -0.367595
 O         0.496232         0.123752        -1.426764
 O        -0.793559         1.083560         0.207324
 C        -1.529184         1.290338         1.405879
 H        -2.907742         1.196023         3.325294
 H        -4.304790         0.380780         2.860424
 H        -2.937386        -0.540279         3.718945
 H        -4.221515        -0.522498         0.439609
 H        -2.956385         0.417375        -0.491153
 H        -2.204336        -2.202484         1.000832
 H         0.173174        -1.802969         0.950516
 H        -0.594612        -2.038815        -0.689605
 H        -0.756782         1.474968         2.224473
 H        -2.200979         2.230242         1.196412
