19
Iteration:  4093charge 0 multiplicity 1
 C        -3.200910         0.222251         2.857387
 C        -2.436898         0.102521         1.453066
 C        -3.086385        -0.415080         0.152388
 C        -2.075404        -1.301228         0.897793
 C        -0.645455        -1.317382         0.374272
 C        -0.344249         0.115408        -0.385308
 O         0.317864         0.134373        -1.385581
 O        -0.656304         1.260160         0.194333
 C        -1.306860         1.161528         1.541073
 H        -4.267457         0.078343         2.697596
 H        -2.673267        -0.509744         3.440780
 H        -2.954939         1.202562         3.317143
 H        -4.179004        -0.507247         0.117413
 H        -2.866347         0.131087        -0.730902
 H        -2.648215        -2.044250         1.439556
 H         0.085346        -1.172503         1.261955
 H        -0.242611        -2.199919        -0.248109
 H        -0.689687         0.770098         2.296243
 H        -1.759015         2.159686         1.664968
