19
Iteration:  2352charge 0 multiplicity 1
 C        -2.990909         0.222049         3.021271
 C        -2.538121         0.043033         1.517666
 C        -3.316073        -0.798021         0.442982
 C        -1.939633        -1.189115         1.011833
 C        -0.572949        -1.170152         0.322740
 C        -0.158012         0.107444        -0.361861
 O         0.747425         0.275773        -1.167914
 O        -0.968554         1.196146        -0.203024
 C        -1.731409         1.301804         1.124156
 H        -3.446967         1.180678         3.117461
 H        -3.815718        -0.442647         3.338161
 H        -2.068210         0.105362         3.617033
 H        -4.112316        -1.381334         0.792924
 H        -3.396208        -0.437223        -0.576158
 H        -2.048616        -2.070155         1.671135
 H         0.093331        -1.272489         1.236279
 H        -0.385807        -2.113225        -0.333410
 H        -0.857770         1.446384         1.853692
 H        -2.220325         2.271815         1.150212
