19
Iteration:   569
 C        -3.323032         0.101364         2.653115
 C        -2.441032         0.117637         1.381980
 C        -2.848390        -0.772377         0.235671
 C        -1.827367        -1.210313         1.260320
 C        -0.538948        -1.177737         0.613948
 C        -0.333627         0.074277        -0.391197
 O        -0.018627         0.038467        -1.552966
 O        -0.523321         1.414863         0.240088
 C        -1.534298         1.392828         1.336983
 H        -3.559867         1.122109         3.112733
 H        -4.275932        -0.324714         2.320754
 H        -2.646698        -0.320620         3.414412
 H        -3.833171        -1.191823         0.278081
 H        -2.555542        -0.632846        -0.759025
 H        -2.082131        -2.084948         1.896880
 H         0.372153        -0.912455         1.263375
 H        -0.300975        -1.995395        -0.031706
 H        -0.961324         1.547134         2.301114
 H        -2.093994         2.272866         1.005695
