19
Iteration:  4496charge 0 multiplicity 1
 C        -3.307077         0.054373         2.867584
 C        -2.451980         0.097250         1.584200
 C        -3.015096        -0.309063         0.289030
 C        -1.998111        -1.158931         0.936199
 C        -0.530160        -1.243096         0.426503
 C        -0.306237        -0.014534        -0.422961
 O         0.284211         0.117199        -1.508826
 O        -0.655615         1.196694         0.187001
 C        -1.434030         1.265518         1.403563
 H        -3.327168         1.101883         3.012058
 H        -4.268686        -0.325534         2.621924
 H        -2.732927        -0.518052         3.528413
 H        -4.060593        -0.744806         0.271156
 H        -2.881664         0.227453        -0.656457
 H        -2.284554        -2.154002         1.247338
 H         0.135660        -1.061321         1.341514
 H        -0.339669        -2.259997         0.030112
 H        -0.779577         1.147026         2.253242
 H        -1.769902         2.303855         1.374916
