19
Iteration:  3117charge 0 multiplicity 1
 C        -3.156347         0.203547         2.900710
 C        -2.464494         0.004347         1.585624
 C        -3.174596        -0.670494         0.457910
 C        -1.919276        -1.232921         1.059586
 C        -0.627755        -1.135775         0.240623
 C        -0.196571         0.085410        -0.423812
 O         0.670067         0.252909        -1.220374
 O        -0.920013         1.247802        -0.082678
 C        -1.613105         1.234504         1.221662
 H        -3.146507        -0.733061         3.467587
 H        -2.568489         1.007696         3.392210
 H        -4.184582         0.496225         2.846171
 H        -4.108440        -1.067615         0.911388
 H        -3.237067        -0.490100        -0.593876
 H        -2.009424        -2.214158         1.548045
 H         0.252604        -1.232871         0.925263
 H        -0.713835        -2.033185        -0.401289
 H        -0.902942         1.320996         2.035452
 H        -2.314082         2.114916         1.093528
