19
Iteration:  4783charge 0 multiplicity 1
 C        -3.272651         0.222324         2.797226
 C        -2.408411         0.082553         1.655832
 C        -3.166961        -0.371519         0.336503
 C        -1.935066        -1.252994         0.909787
 C        -0.599016        -1.249859         0.194480
 C        -0.303450         0.025360        -0.375446
 O         0.348970         0.122239        -1.427003
 O        -0.584088         1.166904         0.224678
 C        -1.452722         1.231326         1.398153
 H        -3.890977         1.126458         2.816322
 H        -3.901600        -0.657782         2.948783
 H        -2.684179         0.222087         3.718484
 H        -4.272120        -0.615831         0.370762
 H        -2.915284         0.281699        -0.537788
 H        -2.297485        -2.163182         1.464437
 H         0.124341        -1.442925         1.058397
 H        -0.492872        -2.116819        -0.455611
 H        -0.835164         1.436565         2.319093
 H        -2.168038         2.090668         1.421421
