19
Iteration:   832
 C        -2.465711         0.491293         2.904867
 C        -2.517596         0.054769         1.442676
 C        -3.426721        -1.016610         0.878006
 C        -1.917823        -1.223059         0.828908
 C        -1.048328        -1.122572        -0.413464
 C        -0.156476         0.096294        -0.231779
 O         1.008477         0.239565        -0.603089
 O        -0.750474         1.201042         0.305349
 C        -2.221498         1.206406         0.588858
 H        -2.992778         1.492423         2.872611
 H        -2.912087        -0.305572         3.522408
 H        -1.436665         0.573707         3.343190
 H        -4.041859        -1.631844         1.561775
 H        -3.972404        -0.769331         0.031532
 H        -1.528981        -1.904583         1.488370
 H        -0.270192        -1.908315        -0.630110
 H        -1.599982        -0.899903        -1.339169
 H        -2.221751         2.183199         1.184995
 H        -2.845324         1.318116        -0.325627
