19
Iteration:  1640charge 0 multiplicity 1
 C        -3.298343         0.377171         2.762834
 C        -2.511149         0.107693         1.507152
 C        -3.022518        -0.813300         0.416476
 C        -1.828954        -1.237872         1.066950
 C        -0.472200        -1.117342         0.400519
 C        -0.260023         0.156802        -0.418689
 O         0.413000         0.108654        -1.399168
 O        -0.963500         1.251708        -0.007353
 C        -1.476193         1.182103         1.416771
 H        -4.082775         1.123927         2.472677
 H        -3.817616        -0.460611         3.196515
 H        -2.605010         0.899563         3.400321
 H        -3.725938        -1.684021         0.605347
 H        -2.824847        -0.500074        -0.553488
 H        -1.963740        -1.993047         1.898289
 H         0.281061        -1.124891         1.167224
 H        -0.332585        -2.029542        -0.227749
 H        -0.562436         1.030223         2.014050
 H        -1.897517         2.149481         1.586396
