19
Iteration:  3780charge 0 multiplicity 1
 C        -3.252804         0.158864         2.913451
 C        -2.421010         0.140560         1.569948
 C        -3.067351        -0.219500         0.209743
 C        -2.061031        -1.198981         0.902897
 C        -0.626292        -1.302606         0.321521
 C        -0.275522        -0.042652        -0.399776
 O         0.347467         0.099661        -1.431629
 O        -0.691699         1.147116         0.183471
 C        -1.364340         1.230064         1.475705
 H        -4.160241        -0.459963         2.720068
 H        -2.641836        -0.232321         3.715460
 H        -3.492896         1.211670         3.165463
 H        -4.158287        -0.507295         0.258904
 H        -2.603944         0.051483        -0.700357
 H        -2.624519        -2.031896         1.376403
 H         0.155753        -1.545160         1.145485
 H        -0.540391        -2.061277        -0.509045
 H        -0.496453         1.304594         2.232074
 H        -1.871821         2.167456         1.530364
