19
Iteration:   877
 C        -2.132020         0.096931         2.884857
 C        -2.519188         0.110129         1.436918
 C        -3.552695        -0.837187         0.873854
 C        -2.072484        -1.267961         0.887151
 C        -1.038176        -1.079116        -0.247364
 C        -0.176356         0.188001        -0.202430
 O         1.001402         0.189646        -0.252959
 O        -0.835366         1.413106        -0.082638
 C        -2.202453         1.226767         0.424431
 H        -2.864624         0.465354         3.670688
 H        -1.540432        -0.814975         3.092362
 H        -1.266605         0.852004         3.035244
 H        -4.221889        -1.405526         1.495686
 H        -4.089688        -0.662951        -0.084160
 H        -1.840416        -2.049671         1.545508
 H        -0.404432        -2.008236        -0.191029
 H        -1.559260        -1.203248        -1.198913
 H        -2.661797         2.190522         0.734027
 H        -2.637348         0.794206        -0.495675
