19
Iteration:  4876charge 0 multiplicity 1
 C        -3.430554         0.094564         2.825804
 C        -2.360530         0.089800         1.683988
 C        -2.936317        -0.175917         0.326696
 C        -1.978578        -1.243436         0.925504
 C        -0.500876        -1.235233         0.371578
 C        -0.344268         0.008725        -0.415653
 O         0.308595         0.059774        -1.495810
 O        -0.692534         1.199111         0.086576
 C        -1.448381         1.186412         1.456735
 H        -3.949831         0.954994         2.979676
 H        -4.150418        -0.707122         2.937449
 H        -2.945398         0.042209         3.777704
 H        -4.017451        -0.449026         0.433590
 H        -2.592930         0.386328        -0.535130
 H        -2.429452        -2.164550         1.373598
 H         0.173113        -1.399480         1.217588
 H        -0.380290        -2.089016        -0.366296
 H        -0.586701         1.392600         2.186966
 H        -1.745353         2.224790         1.327720
