19
Iteration:  1324
 C        -3.282971         0.324650         2.819474
 C        -2.483766         0.088185         1.475563
 C        -3.054415        -0.796440         0.425686
 C        -1.784914        -1.093944         1.201641
 C        -0.486345        -1.231846         0.377125
 C        -0.145867         0.035710        -0.352130
 O         0.292557         0.176500        -1.494960
 O        -0.642903         1.202767         0.150759
 C        -1.718856         1.274104         1.167974
 H        -3.613110         1.412285         3.044812
 H        -4.250824        -0.223063         2.735421
 H        -2.659540         0.019507         3.718159
 H        -4.047980        -1.178553         0.771650
 H        -3.086085        -0.379468        -0.562671
 H        -2.033073        -1.996205         1.718724
 H         0.325216        -1.496488         0.998008
 H        -0.593286        -2.052135        -0.371522
 H        -1.349034         1.626022         2.224930
 H        -2.355147         2.032456         0.729913
