19
Iteration:  4367
 C        -3.134300         0.157881         2.862293
 C        -2.424433         0.091133         1.524225
 C        -3.104054        -0.302906         0.249636
 C        -2.046400        -1.255637         0.959732
 C        -0.639697        -1.299556         0.271382
 C        -0.306750         0.024564        -0.387809
 O         0.471968         0.168312        -1.334491
 O        -0.781528         1.207810         0.173270
 C        -1.445760         1.226249         1.406670
 H        -4.180604         0.491422         2.679650
 H        -3.053731        -0.838488         3.335244
 H        -2.653820         1.017855         3.389059
 H        -4.185274        -0.651862         0.371110
 H        -2.783924         0.099727        -0.768382
 H        -2.476223        -2.176272         1.436113
 H         0.161535        -1.602797         0.887843
 H        -0.605627        -2.059661        -0.542989
 H        -0.814736         0.915203         2.320616
 H        -1.998833         2.126901         1.725884
