19
Iteration:  1151charge 0 multiplicity 1
 C        -3.219922         0.358640         2.931959
 C        -2.559409         0.188851         1.426896
 C        -3.252068        -1.036647         0.650340
 C        -1.792519        -1.134263         1.195771
 C        -0.782044        -1.251740         0.071581
 C        -0.213455         0.049623        -0.428626
 O         0.623862         0.265026        -1.336875
 O        -0.430730         1.154850         0.333181
 C        -1.803881         1.439531         0.896014
 H        -3.713811         1.225969         3.219753
 H        -3.886573        -0.456896         3.016216
 H        -2.402636         0.201698         3.605704
 H        -4.042188        -1.608566         1.147991
 H        -3.315538        -0.813585        -0.475621
 H        -1.779566        -2.006502         1.846567
 H         0.106005        -1.742216         0.604655
 H        -1.226701        -1.881029        -0.794704
 H        -1.609299         2.042258         1.737043
 H        -2.481294         1.996803         0.120440
