19
Iteration:   981charge 0 multiplicity 1
 C        -2.433042         0.375920         2.862398
 C        -2.507482         0.162847         1.409442
 C        -3.332617        -1.190848         1.035092
 C        -1.874528        -1.148763         0.898518
 C        -1.182643        -1.008607        -0.584081
 C        -0.215097         0.172829        -0.320484
 O         1.034606         0.031252        -0.344714
 O        -0.754746         1.288140         0.248901
 C        -2.225791         1.341705         0.443007
 H        -2.788986         1.394886         3.076019
 H        -3.200190        -0.220683         3.376038
 H        -1.417171         0.220107         3.255966
 H        -3.653413        -1.680321         1.936739
 H        -3.878530        -1.401027         0.153390
 H        -1.215436        -1.712720         1.531581
 H        -0.782425        -1.992964        -0.747159
 H        -1.919478        -0.752843        -1.367649
 H        -2.339907         2.385655         0.778469
 H        -2.770313         1.227474        -0.459869
