19
Iteration:  2804
 C        -3.242676         0.282634         2.911904
 C        -2.540209         0.058364         1.538578
 C        -3.233790        -0.886067         0.619129
 C        -1.883222        -1.303320         1.121267
 C        -0.604354        -1.192694         0.203568
 C        -0.167639         0.193613        -0.435100
 O         0.752331         0.290022        -1.252445
 O        -0.916376         1.293902        -0.109413
 C        -1.581175         1.239458         1.147895
 H        -3.921380         1.075868         2.887352
 H        -3.745291        -0.645169         3.159528
 H        -2.518990         0.567530         3.736018
 H        -4.147082        -1.392049         0.877970
 H        -3.302482        -0.625680        -0.476759
 H        -1.992461        -2.118131         1.862909
 H         0.258685        -1.517013         0.798553
 H        -0.695090        -1.865321        -0.617600
 H        -0.850001         1.365517         1.973968
 H        -2.179631         2.153884         1.182213
