19
Iteration:  3486
 C        -3.199039         0.126148         2.956384
 C        -2.503547         0.153745         1.623770
 C        -3.196653        -0.333758         0.389429
 C        -2.026943        -1.175586         0.905474
 C        -0.723015        -1.267169         0.199989
 C        -0.193245         0.011347        -0.409179
 O         0.548604         0.120857        -1.369762
 O        -0.621713         1.186620         0.119997
 C        -1.487286         1.216179         1.337478
 H        -3.502571         1.079257         3.440205
 H        -4.178148        -0.214990         2.725041
 H        -2.689370        -0.580044         3.552398
 H        -4.159615        -0.821187         0.442069
 H        -3.180506         0.270912        -0.548551
 H        -2.294404        -2.076941         1.554215
 H         0.092388        -1.663728         0.852227
 H        -0.844245        -2.087681        -0.545721
 H        -0.811438         1.306029         2.160764
 H        -2.055744         2.137394         1.210226
