19
Iteration:  1881
 C        -2.912492         0.115696         2.942084
 C        -2.616895         0.134502         1.498700
 C        -3.336735        -0.744230         0.384896
 C        -1.992171        -1.207055         1.015994
 C        -0.471081        -1.060175         0.460771
 C        -0.185581         0.039673        -0.405315
 O         0.604627         0.153029        -1.298745
 O        -0.813367         1.204589        -0.009597
 C        -1.755960         1.373281         1.080421
 H        -3.413333         1.038445         3.232599
 H        -3.589986        -0.695020         3.171383
 H        -2.098671        -0.105345         3.624196
 H        -4.223889        -1.433773         0.623639
 H        -3.087500        -0.314263        -0.567406
 H        -2.099078        -2.117377         1.579732
 H         0.124195        -0.802634         1.423666
 H        -0.005047        -2.067580         0.176025
 H        -1.409422         1.765670         2.047897
 H        -2.368832         2.228888         0.768315
