19
Iteration:  1867charge 0 multiplicity 1
 C        -3.030965         0.076345         2.960394
 C        -2.583423         0.120889         1.443519
 C        -3.211475        -0.755491         0.394690
 C        -1.957932        -1.127188         1.027974
 C        -0.611882        -1.072329         0.526049
 C        -0.152377         0.120845        -0.449846
 O         0.638588         0.126003        -1.379486
 O        -0.825100         1.189041         0.009707
 C        -1.736448         1.344734         1.141593
 H        -3.651519         0.931152         3.382215
 H        -3.593598        -0.844961         3.171649
 H        -2.048354         0.059608         3.437885
 H        -4.036490        -1.288916         0.735843
 H        -3.530165        -0.554197        -0.650726
 H        -2.038169        -1.809915         1.905238
 H         0.095486        -0.812413         1.492878
 H        -0.237250        -2.013248         0.063411
 H        -0.978643         1.623427         1.850732
 H        -2.343788         2.213614         0.869883
