19
Iteration:   500
 C        -3.357246         0.197266         2.760785
 C        -2.466341         0.084889         1.462857
 C        -2.860240        -0.554621         0.206643
 C        -1.832750        -1.259982         1.052238
 C        -0.421602        -1.070967         0.576116
 C        -0.307610         0.085895        -0.351545
 O         0.055562        -0.000693        -1.493148
 O        -0.691564         1.272957         0.153715
 C        -1.444720         1.258197         1.377282
 H        -4.505642         0.356641         2.612320
 H        -3.309221        -0.702396         3.335843
 H        -3.097471         1.064492         3.274757
 H        -3.872199        -0.960336         0.252329
 H        -2.713749        -0.242417        -0.867932
 H        -1.961750        -2.242936         1.579253
 H         0.073099        -0.882415         1.469664
 H        -0.068432        -2.000678         0.089403
 H        -0.792359         1.209628         2.232334
 H        -2.057930         2.191945         1.322657
