19
Iteration:  4443charge 0 multiplicity 1
 C        -3.202146         0.182625         2.835795
 C        -2.480522         0.155216         1.470737
 C        -3.134281        -0.487724         0.200277
 C        -2.026708        -1.220290         0.929845
 C        -0.549206        -1.236836         0.400411
 C        -0.342662         0.105052        -0.354103
 O         0.281774         0.123568        -1.429507
 O        -0.636156         1.253297         0.231699
 C        -1.341351         1.175999         1.430386
 H        -3.336718         1.259455         3.138700
 H        -4.131669        -0.387257         2.657085
 H        -2.464862        -0.355637         3.530583
 H        -4.187599        -0.931286         0.346821
 H        -2.937975        -0.164002        -0.854809
 H        -2.254317        -2.099468         1.565645
 H         0.111399        -1.412482         1.244458
 H        -0.372802        -2.083967        -0.310557
 H        -0.747453         0.959213         2.329528
 H        -1.849919         2.140596         1.443116
