19
Iteration:  4383
 C        -3.262560         0.125291         2.819730
 C        -2.382648         0.092879         1.623739
 C        -3.033459        -0.344743         0.292053
 C        -2.000607        -1.195877         0.914195
 C        -0.679783        -1.289964         0.221413
 C        -0.213798         0.085804        -0.340210
 O         0.413408         0.084930        -1.405960
 O        -0.781275         1.212390         0.132764
 C        -1.402266         1.226572         1.484682
 H        -4.292031         0.461069         2.759029
 H        -3.514587        -0.777677         3.383423
 H        -2.957876         0.665767         3.697400
 H        -4.030237        -0.644037         0.275670
 H        -2.840427         0.311431        -0.516241
 H        -2.185691        -2.167913         1.384067
 H         0.047911        -1.671662         1.038190
 H        -0.759280        -1.996909        -0.604537
 H        -0.715939         1.508361         2.298760
 H        -1.922256         2.190509         1.352987
