19
Iteration:   332charge 0 multiplicity 1
 C        -2.879896         0.235526         3.031298
 C        -2.369215         0.082017         1.575473
 C        -3.339187        -0.478928         0.595871
 C        -2.041502        -1.265177         0.821203
 C        -0.822850        -1.329972        -0.115261
 C        -0.154436         0.029655        -0.313509
 O         0.939741         0.166551        -0.906977
 O        -0.856621         1.157443         0.037512
 C        -1.881926         1.388635         0.959826
 H        -2.487266         1.014679         3.580987
 H        -4.015118         0.329787         3.115807
 H        -2.662025        -0.681464         3.631680
 H        -4.220662        -0.902911         1.118187
 H        -3.506949        -0.066804        -0.413678
 H        -2.167165        -2.204859         1.507653
 H        -0.049533        -1.982080         0.251518
 H        -0.980733        -1.626162        -1.139946
 H        -1.450981         1.904753         1.807636
 H        -2.665051         2.125866         0.690098
