19
Iteration:   990charge 0 multiplicity 1
 C        -2.505629         0.418573         2.950076
 C        -2.525201         0.142118         1.396479
 C        -3.328146        -1.161695         0.988558
 C        -1.893487        -1.140209         0.817640
 C        -1.150502        -1.044902        -0.500226
 C        -0.153495         0.097031        -0.298189
 O         1.017696         0.138217        -0.419368
 O        -0.787508         1.225910         0.197815
 C        -2.153632         1.318698         0.511674
 H        -2.646704         1.529067         3.071113
 H        -3.246702        -0.189490         3.561861
 H        -1.419720         0.343343         3.377010
 H        -3.687465        -1.778569         1.862916
 H        -4.031020        -1.055584         0.184641
 H        -1.397941        -1.881739         1.524506
 H        -0.690883        -1.951597        -0.735285
 H        -1.834234        -0.823495        -1.283009
 H        -2.311645         2.260308         0.940315
 H        -2.639248         1.204528        -0.429817
