19
Iteration:  1074charge 0 multiplicity 1
 C        -2.667648         0.286245         2.900070
 C        -2.637332         0.177443         1.357217
 C        -3.382643        -0.908158         0.691624
 C        -1.942188        -1.123103         1.036722
 C        -0.802640        -1.262219         0.068106
 C        -0.156149         0.109457        -0.354107
 O         0.852837         0.229781        -1.109186
 O        -0.605703         1.167542         0.432223
 C        -2.145228         1.365400         0.656080
 H        -3.623813         0.561512         3.282959
 H        -2.484521        -0.650261         3.395287
 H        -1.941942         1.017165         3.210751
 H        -4.022588        -1.656069         1.314971
 H        -3.737302        -0.733947        -0.343286
 H        -2.112507        -1.880422         1.861410
 H         0.106180        -1.782601         0.514359
 H        -1.205465        -1.844789        -0.833500
 H        -2.230495         2.154105         1.407861
 H        -2.639244         1.761027        -0.342988
