19
Iteration:  3106charge 0 multiplicity 1
 C        -3.218959         0.130097         2.922965
 C        -2.451430         0.090523         1.562579
 C        -3.250871        -0.726866         0.523614
 C        -1.953966        -1.221529         1.008993
 C        -0.648622        -1.097300         0.355545
 C        -0.195795         0.159963        -0.441974
 O         0.717115         0.274697        -1.275708
 O        -0.924650         1.198920        -0.112693
 C        -1.486878         1.198844         1.176830
 H        -3.500604        -0.808750         3.377009
 H        -2.611186         0.632449         3.717978
 H        -4.097174         0.742757         2.809709
 H        -4.062503        -1.350063         0.972175
 H        -3.435204        -0.417451        -0.474320
 H        -2.046502        -2.147018         1.593158
 H         0.067956        -1.338362         1.177646
 H        -0.420587        -1.884820        -0.407456
 H        -0.720369         1.499677         1.871261
 H        -2.131853         2.132927         1.152696
