19
Iteration:   410charge 0 multiplicity 1
 C        -3.024923         0.246462         2.924816
 C        -2.487034         0.097336         1.552093
 C        -3.190065        -0.580932         0.417121
 C        -1.972997        -1.319182         0.979324
 C        -0.658837        -1.268826         0.266371
 C        -0.259531         0.072510        -0.351637
 O         0.674207         0.207152        -1.183749
 O        -0.806585         1.181959         0.041872
 C        -1.688331         1.346082         1.110344
 H        -2.971814        -0.696980         3.399513
 H        -2.580549         0.931151         3.642977
 H        -4.071933         0.404383         2.985050
 H        -4.250594        -0.983049         0.529236
 H        -3.155254        -0.149908        -0.598301
 H        -2.191126        -2.185723         1.549247
 H         0.152840        -1.539059         0.845071
 H        -0.689050        -1.896985        -0.630476
 H        -1.101782         1.683912         1.916160
 H        -2.395707         2.123397         0.742001
