19
Iteration:  2133charge 0 multiplicity 1
 C        -3.438703         0.316381         2.699131
 C        -2.393003         0.017905         1.600595
 C        -2.874151        -0.700874         0.337259
 C        -1.773757        -1.326379         1.146363
 C        -0.379784        -1.093827         0.593864
 C        -0.352271         0.173012        -0.451282
 O         0.234232         0.157491        -1.527707
 O        -0.888853         1.227239         0.043297
 C        -1.486500         1.167824         1.356597
 H        -3.895320         1.254083         2.336695
 H        -4.103934        -0.556851         2.932210
 H        -2.992554         0.586796         3.703776
 H        -3.910131        -1.052594         0.510038
 H        -2.594862        -0.289768        -0.631963
 H        -2.017870        -2.231765         1.705560
 H         0.308614        -0.857669         1.364832
 H        -0.037674        -1.958376        -0.040461
 H        -0.559064         1.260186         1.951037
 H        -2.116015         2.076216         1.409015
