19
Iteration:  2619
 C        -3.447686         0.379354         2.859188
 C        -2.414704        -0.021685         1.693452
 C        -2.962530        -0.687582         0.439034
 C        -1.784022        -1.336266         0.997435
 C        -0.364984        -1.222508         0.340898
 C        -0.213840         0.076919        -0.428398
 O         0.370684         0.155399        -1.480058
 O        -0.867244         1.264072         0.056011
 C        -1.634232         1.309718         1.314383
 H        -3.700992         1.404048         2.567783
 H        -4.254772        -0.346559         2.669513
 H        -3.189510         0.490090         3.917661
 H        -3.930377        -1.237849         0.693902
 H        -2.946709        -0.066056        -0.455957
 H        -1.953497        -2.312276         1.439389
 H         0.377877        -1.260000         1.230049
 H        -0.154761        -2.058805        -0.294970
 H        -0.885845         1.553641         2.066774
 H        -2.313638         2.180945         1.241259
