19
Iteration:  4313
 C        -3.194072         0.053894         2.888103
 C        -2.464987         0.093494         1.570291
 C        -3.315621        -0.353770         0.421759
 C        -2.095443        -1.138302         0.847926
 C        -0.648041        -1.207868         0.203793
 C        -0.215145         0.074923        -0.406616
 O         0.614548         0.078634        -1.282150
 O        -0.667312         1.248409         0.072158
 C        -1.440771         1.172546         1.341623
 H        -4.245531        -0.155120         3.015474
 H        -2.745601        -0.654155         3.572616
 H        -3.053134         0.984615         3.469256
 H        -4.344756        -0.790893         0.509286
 H        -3.272276         0.367110        -0.477256
 H        -2.259316        -2.041126         1.471723
 H         0.020029        -1.392562         1.058367
 H        -0.523515        -2.005218        -0.563416
 H        -0.922642         1.098482         2.276144
 H        -2.071360         2.056128         1.505490
