19
Iteration:  1208charge 0 multiplicity 1
 C        -3.091753         0.261925         3.045793
 C        -2.405873         0.052273         1.521852
 C        -3.158765        -0.632000         0.448996
 C        -1.976538        -1.318309         0.964632
 C        -0.570111        -1.263077         0.404179
 C        -0.250516         0.081784        -0.388296
 O         0.574821         0.084637        -1.334748
 O        -0.661487         1.311201         0.030907
 C        -1.858567         1.373299         1.074404
 H        -3.837694         0.975221         2.873815
 H        -3.655706        -0.629206         3.319963
 H        -2.460549         0.626974         3.841718
 H        -4.159788        -1.041366         0.554914
 H        -3.001310        -0.250746        -0.540768
 H        -2.155301        -2.167439         1.618605
 H         0.124192        -1.476894         1.210553
 H        -0.257219        -1.930546        -0.404423
 H        -1.471641         2.008317         1.861509
 H        -2.743219         1.917548         0.552515
