19
Iteration:     2
 C        -3.229547         0.158371         2.831430
 C        -2.464077         0.115519         1.530409
 C        -3.124471        -0.399482         0.280696
 C        -2.026283        -1.198614         0.932774
 C        -0.634178        -1.251273         0.322104
 C        -0.238481         0.061606        -0.375842
 O         0.470200         0.085743        -1.339369
 O        -0.733448         1.216093         0.147130
 C        -1.434788         1.226074         1.389142
 H        -3.891269        -0.681424         2.888196
 H        -2.526417         0.095730         3.713155
 H        -3.830038         1.095829         2.939085
 H        -4.114567        -0.769796         0.369855
 H        -2.931991         0.093528        -0.674291
 H        -2.316266        -2.150334         1.453278
 H         0.115579        -1.418868         1.095834
 H        -0.568821        -2.021000        -0.424947
 H        -0.709935         1.216237         2.247286
 H        -1.951708         2.201531         1.426095
