19
Iteration:  1413
 C        -3.145420         0.332727         2.865718
 C        -2.433340         0.084120         1.589866
 C        -3.090371        -0.670312         0.413189
 C        -1.844878        -1.249340         1.039411
 C        -0.520559        -1.152351         0.419392
 C        -0.324522         0.032124        -0.486122
 O         0.457733         0.146856        -1.410083
 O        -0.715125         1.115432         0.180964
 C        -1.795434         1.313833         1.148986
 H        -4.144944         0.808438         2.692016
 H        -3.441611        -0.507757         3.510622
 H        -2.653913         1.167648         3.424390
 H        -3.931103        -1.314299         0.364629
 H        -2.878900        -0.216128        -0.553618
 H        -2.040757        -2.168390         1.614853
 H         0.272073        -1.084242         1.051757
 H        -0.319237        -2.090696        -0.135562
 H        -1.306199         1.837255         2.032612
 H        -2.341623         2.112362         0.667239
