19
Iteration:   120
 C        -3.305511         0.293612         2.622610
 C        -2.310556         0.098095         1.591057
 C        -2.921036        -0.424201         0.192331
 C        -1.972617        -1.268466         0.997568
 C        -0.565942        -1.308287         0.367765
 C        -0.293618         0.047993        -0.350148
 O         0.128118         0.181503        -1.460648
 O        -0.724861         1.131509         0.304377
 C        -1.384520         1.205580         1.514108
 H        -3.877536        -0.677495         2.732734
 H        -2.895474         0.539037         3.575452
 H        -4.007318         1.082731         2.369060
 H        -3.909734        -0.667656        -0.071359
 H        -2.442524         0.086329        -0.658175
 H        -2.320249        -2.039329         1.626304
 H         0.227768        -1.409111         1.173087
 H        -0.448393        -2.134108        -0.368357
 H        -0.612178         1.340243         2.318242
 H        -1.888996         2.172194         1.472773
