19
Iteration:  4603charge 0 multiplicity 1
 C        -3.203557         0.196533         2.962491
 C        -2.482542         0.087453         1.561374
 C        -3.249888        -0.471212         0.372296
 C        -2.015179        -1.225821         0.899962
 C        -0.720509        -1.210209         0.167949
 C        -0.223893         0.035556        -0.489437
 O         0.581768         0.128080        -1.330348
 O        -0.686242         1.257074         0.161023
 C        -1.465302         1.199945         1.371670
 H        -3.945204         1.051792         2.922153
 H        -3.707426        -0.690026         3.414959
 H        -2.480442         0.556947         3.753425
 H        -4.089874        -1.074991         0.684291
 H        -3.117757        -0.053783        -0.610307
 H        -2.274110        -2.088037         1.476470
 H         0.103180        -1.494541         0.833524
 H        -0.780747        -2.011596        -0.584769
 H        -0.698222         1.081878         2.191715
 H        -1.764100         2.252351         1.355863
