19
Iteration:  1727
 C        -3.137118         0.092953         2.829792
 C        -2.462796         0.105128         1.491407
 C        -2.952043        -0.644624         0.216361
 C        -1.848840        -1.148797         1.081476
 C        -0.362319        -1.187842         0.629629
 C        -0.203455         0.038692        -0.324871
 O         0.199155         0.014005        -1.470663
 O        -0.787045         1.289828         0.091547
 C        -1.754445         1.437086         1.211290
 H        -3.756637         1.011109         3.020679
 H        -3.845182        -0.719468         2.999279
 H        -2.397584         0.070227         3.631799
 H        -4.003479        -0.959412         0.197003
 H        -2.790608        -0.103456        -0.734424
 H        -2.115050        -2.079301         1.686193
 H         0.255448        -1.218340         1.436617
 H        -0.254260        -2.148892         0.064844
 H        -1.193953         1.909071         2.076308
 H        -2.604511         2.101811         0.948003
