19
Iteration:  4467
 C        -3.142294         0.217533         2.852862
 C        -2.461753         0.028143         1.526421
 C        -3.027145        -0.413022         0.167275
 C        -2.032399        -1.250504         0.852739
 C        -0.535447        -1.228934         0.407667
 C        -0.228504         0.128949        -0.312296
 O         0.189707         0.051115        -1.425123
 O        -0.694443         1.283140         0.248506
 C        -1.470514         1.188431         1.423500
 H        -2.881230         1.310383         2.938296
 H        -4.249398         0.057696         2.835274
 H        -2.523731        -0.329746         3.666860
 H        -4.043997        -0.800729         0.034559
 H        -2.670664         0.043530        -0.782240
 H        -2.270139        -2.284809         1.239403
 H         0.053315        -1.470661         1.250789
 H        -0.421755        -2.063117        -0.295029
 H        -0.866786         1.039496         2.371161
 H        -2.041763         2.140541         1.437679
