19
Iteration:   405charge 0 multiplicity 1
 C        -2.987174         0.222517         2.941404
 C        -2.472593         0.125280         1.499576
 C        -3.250386        -0.605834         0.395367
 C        -1.953401        -1.256404         0.962068
 C        -0.690325        -1.284367         0.250438
 C        -0.237909         0.085847        -0.330080
 O         0.657924         0.169653        -1.132538
 O        -0.792811         1.215287         0.045702
 C        -1.716646         1.342555         1.058650
 H        -2.656967        -0.735410         3.509241
 H        -2.509944         0.912347         3.707483
 H        -4.151556         0.262611         3.006243
 H        -4.191075        -1.063578         0.541112
 H        -3.236792        -0.213279        -0.619701
 H        -2.096545        -2.162893         1.646221
 H         0.222851        -1.599272         0.922083
 H        -0.740258        -1.911082        -0.653828
 H        -1.123277         1.663884         2.012891
 H        -2.413219         2.173308         0.877018
