19
Iteration:  2764charge 0 multiplicity 1
 C        -3.086815         0.196546         2.890181
 C        -2.440542         0.114466         1.544958
 C        -3.134994        -0.830514         0.449568
 C        -1.903283        -1.267026         1.124299
 C        -0.678618        -1.192821         0.229565
 C        -0.235662         0.170977        -0.352861
 O         0.732833         0.184646        -1.111250
 O        -1.064125         1.275414        -0.146950
 C        -1.632641         1.354815         1.115645
 H        -3.562193         1.213013         3.232124
 H        -3.744961        -0.650024         3.127802
 H        -2.288451         0.046782         3.652028
 H        -4.006707        -1.265054         0.762687
 H        -3.001749        -0.493964        -0.598337
 H        -1.848766        -2.099865         1.849384
 H         0.247280        -1.671832         0.735020
 H        -0.751570        -1.789937        -0.721076
 H        -0.863953         1.529667         1.857983
 H        -2.292222         2.306277         1.102872
