19
Iteration:  2730
 C        -2.996209         0.225282         3.025602
 C        -2.453035         0.050736         1.650172
 C        -3.153181        -0.574544         0.397595
 C        -1.937233        -1.201244         0.903043
 C        -0.543655        -1.246486         0.307968
 C        -0.153560         0.043061        -0.374723
 O         0.729086         0.277504        -1.200532
 O        -1.038065         1.080224        -0.017220
 C        -1.838028         1.310980         1.037476
 H        -3.764393         1.103549         3.272122
 H        -3.454184        -0.722792         3.319018
 H        -2.068512         0.381963         3.636995
 H        -4.049068        -1.158120         0.373126
 H        -3.309385         0.048793        -0.486018
 H        -2.136187        -2.129579         1.509739
 H         0.202173        -1.277199         1.243067
 H        -0.398920        -2.153424        -0.314263
 H        -1.233444         1.886836         1.717363
 H        -2.704216         2.038422         0.733384
