19
Iteration:  1359charge 0 multiplicity 1
 C        -3.154089         0.151623         2.786791
 C        -2.369609         0.168876         1.449802
 C        -3.088395        -0.885484         0.359856
 C        -1.824104        -1.205843         1.179334
 C        -0.650050        -1.152371         0.371231
 C        -0.336015         0.147207        -0.362285
 O         0.243846        -0.032029        -1.432870
 O        -0.441104         1.341474         0.323933
 C        -1.741146         1.489060         1.055946
 H        -3.720845         1.109266         2.885793
 H        -3.854828        -0.718477         2.778473
 H        -2.527188        -0.137340         3.716597
 H        -4.107920        -0.985916         0.762736
 H        -3.044116        -0.635598        -0.670637
 H        -1.926447        -2.041946         1.897125
 H         0.187961        -1.026732         1.110064
 H        -0.511665        -2.159903        -0.145556
 H        -1.724980         2.147232         1.938393
 H        -2.404855         1.979731         0.272872
