19
Iteration:  1524charge 0 multiplicity 1
 C        -2.943103         0.267849         2.891918
 C        -2.461285         0.022077         1.485848
 C        -3.187113        -0.634666         0.340312
 C        -1.911944        -1.217268         0.955707
 C        -0.469086        -1.188362         0.541101
 C        -0.226224         0.071281        -0.346425
 O         0.539479         0.094989        -1.240441
 O        -0.959655         1.225130        -0.043628
 C        -1.777775         1.313632         1.109564
 H        -3.166418         1.339514         3.036792
 H        -3.889191        -0.303536         2.972480
 H        -2.147980        -0.020437         3.650005
 H        -4.088198        -1.236831         0.605938
 H        -3.230854         0.081879        -0.452438
 H        -2.173021        -2.170057         1.466500
 H         0.256411        -1.009859         1.286472
 H        -0.183196        -2.092561        -0.029168
 H        -1.168711         1.551100         2.082979
 H        -2.532123         2.157385         1.069572
