19
Iteration:  4905charge 0 multiplicity 1
 C        -3.253429         0.096331         2.798492
 C        -2.403195         0.197219         1.557458
 C        -3.141498        -0.392687         0.215718
 C        -2.021047        -1.152395         0.999425
 C        -0.583498        -1.199312         0.336206
 C        -0.219136         0.070445        -0.403282
 O         0.328232         0.059696        -1.454795
 O        -0.712643         1.199877         0.194104
 C        -1.365303         1.188003         1.473385
 H        -3.999902         0.998043         2.849776
 H        -3.878385        -0.803504         2.980433
 H        -2.645577         0.215901         3.766768
 H        -4.124060        -0.822749         0.347687
 H        -2.934622        -0.067141        -0.759136
 H        -2.300795        -1.918551         1.661133
 H         0.073826        -1.612656         1.143833
 H        -0.642784        -1.977978        -0.435637
 H        -0.652646         0.881903         2.276169
 H        -1.660000         2.302196         1.494439
