19
Iteration:  4864charge 0 multiplicity 1
 C        -3.344370         0.103226         2.867580
 C        -2.401986         0.008988         1.652966
 C        -3.008524        -0.205862         0.297152
 C        -2.019457        -1.210254         0.967207
 C        -0.566827        -1.231946         0.434339
 C        -0.207850         0.076361        -0.426750
 O         0.262228         0.051264        -1.514971
 O        -0.710723         1.193589         0.156644
 C        -1.355285         1.211202         1.385150
 H        -3.782622         0.993928         2.655256
 H        -4.078518        -0.596421         2.515302
 H        -3.011943        -0.064064         3.848555
 H        -4.081824        -0.420659         0.190026
 H        -2.657384         0.269376        -0.577118
 H        -2.420144        -2.130476         1.359820
 H         0.239522        -1.211648         1.200761
 H        -0.265983        -2.012211        -0.320680
 H        -0.550945         1.248594         2.214136
 H        -2.124609         2.018677         1.403101
