19
Iteration:  1711charge 0 multiplicity 1
 C        -3.194075         0.083132         2.867818
 C        -2.549039         0.160880         1.529881
 C        -2.935948        -0.450132         0.268663
 C        -1.700620        -1.148513         1.060556
 C        -0.347807        -1.167720         0.502677
 C        -0.239790         0.044461        -0.300711
 O         0.202614        -0.056093        -1.412057
 O        -0.809558         1.166813         0.086285
 C        -1.852340         1.416393         1.195695
 H        -3.704081         0.990829         3.202909
 H        -3.913636        -0.759683         2.846428
 H        -2.312563        -0.039237         3.535096
 H        -3.639476        -1.254541         0.187136
 H        -2.569465         0.002414        -0.657298
 H        -2.052403        -1.933765         1.673154
 H         0.508744        -1.047698         1.392604
 H         0.009501        -1.836393        -0.271308
 H        -1.305584         1.632614         2.096046
 H        -2.249453         2.243933         0.599973
