19
Iteration:   276charge 0 multiplicity 1
 C        -2.958784         0.150028         2.848016
 C        -2.467878         0.129617         1.440882
 C        -3.499772        -0.689251         0.646960
 C        -2.077718        -1.202922         0.959335
 C        -0.922768        -1.174120        -0.079966
 C        -0.192423         0.111649        -0.281215
 O         0.913837         0.089403        -0.827493
 O        -0.824481         1.283460        -0.133084
 C        -1.511046         1.328531         1.138378
 H        -3.785170         0.744283         2.982794
 H        -3.080748        -0.907436         3.250058
 H        -2.043715         0.603525         3.324261
 H        -4.292631        -1.127130         1.207974
 H        -3.619636        -0.320080        -0.394018
 H        -1.771630        -1.979896         1.785787
 H        -0.124192        -1.961651         0.127114
 H        -1.170132        -1.381587        -1.105392
 H        -0.687600         1.275149         1.885164
 H        -2.044363         2.287914         1.132448
