19
Iteration:  4618
 C        -3.161531         0.099196         2.868444
 C        -2.437596         0.176277         1.543512
 C        -3.218246        -0.498650         0.422803
 C        -2.101855        -1.243933         1.038133
 C        -0.777253        -1.201327         0.152455
 C        -0.234031         0.136376        -0.437831
 O         0.602020         0.064228        -1.312099
 O        -0.700575         1.262003         0.078026
 C        -1.440599         1.247923         1.384022
 H        -3.897797         0.859231         2.994332
 H        -3.604889        -0.852906         2.735203
 H        -2.461730        -0.010700         3.638626
 H        -4.285079        -0.595400         0.662006
 H        -3.031950        -0.057532        -0.635913
 H        -2.084899        -2.165994         1.698087
 H         0.047931        -1.522410         0.892850
 H        -0.720634        -1.919123        -0.712991
 H        -0.651994         1.317559         2.255397
 H        -2.035591         2.177844         1.445233
