19
Iteration:  4997
 C        -3.216716         0.052522         2.897651
 C        -2.441342         0.170744         1.579322
 C        -3.094087        -0.380744         0.380258
 C        -2.003731        -1.186981         1.045979
 C        -0.799769        -1.269333         0.170881
 C        -0.201692         0.031463        -0.438787
 O         0.591977         0.085915        -1.312766
 O        -0.806931         1.172472         0.103673
 C        -1.454767         1.365534         1.330961
 H        -3.761661         0.824945         3.256194
 H        -3.910920        -0.764366         2.904082
 H        -2.538406        -0.241899         3.664272
 H        -4.105964        -0.750976         0.577618
 H        -2.758792         0.027059        -0.618807
 H        -2.486734        -2.040006         1.566693
 H         0.131195        -1.427112         0.793467
 H        -0.748648        -1.937910        -0.714591
 H        -0.628263         1.515666         2.040180
 H        -1.965532         2.299594         1.170030
