19
Iteration:  1982charge 0 multiplicity 1
 C        -3.292254         0.329249         2.829782
 C        -2.413711         0.051943         1.599570
 C        -3.180941        -0.745330         0.567680
 C        -1.851784        -1.301772         1.145071
 C        -0.547598        -1.211943         0.262152
 C        -0.220032         0.199383        -0.422178
 O         0.651055         0.191722        -1.244481
 O        -1.000407         1.307076        -0.151676
 C        -1.541588         1.191993         1.227282
 H        -4.257442         0.703337         2.669984
 H        -3.464083        -0.613126         3.362260
 H        -2.759727         0.934153         3.567459
 H        -4.027971        -1.321586         0.858010
 H        -3.338617        -0.454900        -0.512760
 H        -1.847170        -2.300029         1.487047
 H         0.329337        -1.667972         0.749448
 H        -0.582670        -1.810159        -0.679361
 H        -0.658602         1.251073         1.877834
 H        -1.989997         2.181658         1.331825
