19
Iteration:  2075
 C        -3.197091        -0.037452         2.810029
 C        -2.474926         0.049722         1.547292
 C        -3.059293        -0.615425         0.366141
 C        -1.844791        -1.163094         1.141165
 C        -0.466630        -1.013590         0.631497
 C        -0.287449         0.091840        -0.452314
 O         0.347221         0.012019        -1.451923
 O        -0.774919         1.315652        -0.055070
 C        -1.660418         1.353170         1.220383
 H        -3.578914         0.939403         3.216881
 H        -4.142792        -0.538142         2.807179
 H        -2.524144        -0.495617         3.527755
 H        -3.958942        -1.185251         0.197541
 H        -2.716442        -0.306992        -0.619128
 H        -2.148035        -1.946533         1.831725
 H         0.075457        -0.711513         1.473561
 H         0.068289        -1.914554         0.411513
 H        -0.870742         1.718292         1.952604
 H        -2.239985         2.252672         1.018042
