19
Iteration:  1884
 C        -2.911158         0.139417         2.951142
 C        -2.600896         0.087523         1.485655
 C        -3.323187        -0.735054         0.402289
 C        -1.983561        -1.194964         0.996546
 C        -0.438719        -1.101471         0.475417
 C        -0.193596         0.047093        -0.398415
 O         0.585338         0.151633        -1.270134
 O        -0.806560         1.233426        -0.022317
 C        -1.789701         1.362986         1.054351
 H        -3.396378         1.041058         3.252359
 H        -3.628430        -0.673571         3.206761
 H        -2.058662        -0.148576         3.606350
 H        -4.351264        -1.300361         0.586292
 H        -3.078706        -0.248817        -0.525915
 H        -2.111245        -2.147181         1.496981
 H         0.099054        -0.884101         1.317158
 H        -0.045153        -2.054453         0.186400
 H        -1.324589         1.772444         2.017087
 H        -2.436686         2.255036         0.810247
