19
Iteration:  4855
 C        -3.307364         0.119769         2.783400
 C        -2.358217         0.099102         1.623674
 C        -3.078977        -0.321225         0.267016
 C        -1.999178        -1.212102         0.937321
 C        -0.576078        -1.183719         0.412269
 C        -0.205875         0.004569        -0.369655
 O         0.252859         0.062854        -1.526870
 O        -0.700223         1.242494         0.152186
 C        -1.356544         1.193669         1.464241
 H        -3.769193         1.115137         2.943483
 H        -4.128034        -0.625386         2.733536
 H        -2.812816        -0.091479         3.744736
 H        -4.146177        -0.689532         0.160275
 H        -2.715649         0.379756        -0.481801
 H        -2.350409        -2.243837         1.221788
 H        -0.010034        -1.272428         1.321198
 H        -0.500217        -2.184484        -0.046870
 H        -0.679723         1.216741         2.358558
 H        -1.903110         2.145821         1.501452
