19
Iteration:  3168charge 0 multiplicity 1
 C        -3.062291         0.118875         2.887328
 C        -2.478112         0.055840         1.514935
 C        -3.147642        -0.580426         0.394911
 C        -1.919957        -1.231842         1.083922
 C        -0.614152        -1.193950         0.314581
 C        -0.237023         0.116911        -0.393870
 O         0.582739         0.179364        -1.282921
 O        -0.811213         1.227772         0.089997
 C        -1.706245         1.299392         1.144081
 H        -2.182334         0.084805         3.656727
 H        -3.624586         1.051463         3.068894
 H        -3.753601        -0.734587         2.956180
 H        -4.212340        -0.997063         0.477056
 H        -2.961609        -0.159477        -0.567462
 H        -2.140993        -1.996898         1.795713
 H         0.237700        -1.489009         0.890033
 H        -0.728127        -1.968039        -0.495476
 H        -1.269134         1.684729         2.072554
 H        -2.480372         2.032162         0.771065
