19
Iteration:  3637charge 0 multiplicity 1
 C        -3.080917         0.154228         2.948427
 C        -2.515456         0.144885         1.463014
 C        -3.179174        -0.269853         0.202830
 C        -2.174792        -1.229295         0.888004
 C        -0.746075        -1.265381         0.335244
 C        -0.293355        -0.020913        -0.437479
 O         0.432845         0.097439        -1.422354
 O        -0.536128         1.212079         0.276365
 C        -1.408091         1.199506         1.405071
 H        -3.627014        -0.822826         3.099541
 H        -2.237265         0.182093         3.636831
 H        -3.828690         0.955826         3.073540
 H        -4.099655        -0.687880         0.442210
 H        -2.923738         0.299081        -0.730833
 H        -2.522994        -2.192853         1.346290
 H        -0.073209        -1.281487         1.191184
 H        -0.536026        -2.116905        -0.371538
 H        -0.804288         0.978122         2.351084
 H        -1.679958         2.214704         1.519482
