19
Iteration:  4716
 C        -3.085309         0.156382         2.866012
 C        -2.467198         0.104303         1.485522
 C        -3.259199        -0.443372         0.317562
 C        -2.120908        -1.179598         0.868333
 C        -0.718066        -1.221040         0.298835
 C        -0.223765         0.142855        -0.408537
 O         0.539094         0.049753        -1.288542
 O        -0.773532         1.275503         0.062043
 C        -1.362749         1.151173         1.490587
 H        -3.626240         1.067741         2.904605
 H        -3.633634        -0.763691         2.902536
 H        -2.285295         0.065662         3.551165
 H        -4.217366        -0.839866         0.772667
 H        -3.185136         0.053266        -0.667009
 H        -2.376818        -2.077693         1.552474
 H         0.109905        -1.350882         1.045470
 H        -0.497910        -1.932435        -0.527131
 H        -0.577326         1.003663         2.297433
 H        -1.875651         2.081769         1.654611
