19
Iteration:   551
 C        -3.337090         0.114088         2.683091
 C        -2.382702         0.100528         1.505105
 C        -2.845372        -0.651738         0.200007
 C        -1.841618        -1.206758         1.093536
 C        -0.349000        -1.102518         0.627045
 C        -0.334164         0.076744        -0.344691
 O        -0.139842         0.024425        -1.510556
 O        -0.517969         1.229337         0.272243
 C        -1.573530         1.419346         1.237778
 H        -3.835588         1.007816         2.861837
 H        -4.096474        -0.697260         2.484740
 H        -2.826179        -0.083003         3.710917
 H        -3.865401        -0.974931         0.060643
 H        -2.483756        -0.303377        -0.814959
 H        -2.055409        -1.957922         1.778394
 H         0.275119        -0.847208         1.521261
 H        -0.061041        -2.041893         0.093398
 H        -1.077984         1.722282         2.179082
 H        -2.254879         2.153276         0.803367
