19
Iteration:   383
 C        -2.830313         0.047648         2.902406
 C        -2.636133         0.173908         1.486519
 C        -3.340730        -0.726823         0.438153
 C        -2.016589        -1.165843         0.941090
 C        -0.777000        -1.208750         0.194736
 C        -0.129775         0.117551        -0.340231
 O         0.808775        -0.008799        -1.074694
 O        -0.773918         1.326605        -0.003570
 C        -1.794879         1.477174         1.138198
 H        -2.065762        -0.523520         3.553786
 H        -2.738983         1.056046         3.414612
 H        -3.880115        -0.287428         3.258596
 H        -4.234120        -1.172220         0.748766
 H        -3.499144        -0.415665        -0.598555
 H        -2.121043        -1.994636         1.709649
 H         0.082291        -1.629088         0.863153
 H        -0.847628        -1.779778        -0.742766
 H        -1.228562         1.884537         2.064147
 H        -2.472526         2.237950         0.738532
