19
Iteration:   621charge 0 multiplicity 1
 C        -3.397254         0.390192         2.843444
 C        -2.459488        -0.014997         1.638737
 C        -3.018554        -0.643892         0.422397
 C        -1.831412        -1.349771         1.102045
 C        -0.414233        -1.178397         0.489206
 C        -0.274728         0.088482        -0.492335
 O         0.495943         0.252792        -1.487554
 O        -0.924646         1.193330        -0.021202
 C        -1.556633         1.168705         1.305442
 H        -3.215048         1.542928         2.954450
 H        -4.434096         0.050665         2.597576
 H        -3.258459        -0.129569         3.807474
 H        -4.104212        -0.993463         0.413825
 H        -2.789905        -0.186214        -0.545583
 H        -1.938213        -2.345557         1.723443
 H         0.331544        -0.951142         1.214244
 H        -0.081006        -1.965781        -0.222617
 H        -0.768911         1.238117         2.086611
 H        -2.218319         2.112545         1.283068
