19
Iteration:     6charge 0 multiplicity 1
 C        -3.237202         0.178520         2.816369
 C        -2.469647         0.127855         1.527731
 C        -3.079531        -0.391511         0.272113
 C        -2.020767        -1.208868         0.918746
 C        -0.603464        -1.287522         0.330595
 C        -0.260246         0.086029        -0.384131
 O         0.452407         0.044931        -1.353639
 O        -0.758728         1.236542         0.175004
 C        -1.416805         1.236758         1.422089
 H        -3.901272        -0.706735         2.794070
 H        -2.513781         0.011439         3.681155
 H        -3.815454         1.123652         3.004186
 H        -4.099105        -0.796336         0.352214
 H        -2.932977         0.096341        -0.703356
 H        -2.285899        -2.202508         1.395020
 H         0.189749        -1.366269         1.098051
 H        -0.659096        -2.036049        -0.483141
 H        -0.727077         1.358579         2.323401
 H        -2.061367         2.156264         1.441844
