19
Iteration:    65charge 0 multiplicity 1
 C        -3.428789         0.116910         2.655602
 C        -2.491353         0.181791         1.466609
 C        -3.066073        -0.495982         0.200909
 C        -1.909184        -1.182316         0.935666
 C        -0.434904        -1.153107         0.563186
 C        -0.266574         0.017402        -0.447006
 O        -0.020469         0.098212        -1.612427
 O        -0.425237         1.196349         0.357524
 C        -1.347535         1.231512         1.547407
 H        -4.478551        -0.165752         2.391059
 H        -3.128353        -0.449486         3.474533
 H        -3.519638         1.122737         2.988629
 H        -4.059545        -0.860995         0.382118
 H        -2.917258        -0.156450        -0.848374
 H        -2.106492        -1.994061         1.534295
 H         0.153001        -0.764907         1.442721
 H         0.046633        -2.151535         0.512536
 H        -0.726185         0.868638         2.326068
 H        -1.564369         2.280959         1.685721
