19
Iteration:   159
 C        -3.373151         0.138515         2.944136
 C        -2.556972         0.091646         1.626711
 C        -3.243682        -0.475964         0.320711
 C        -2.100893        -1.152421         0.942704
 C        -0.616111        -1.142408         0.313493
 C        -0.125263         0.085674        -0.430928
 O         0.512710         0.020250        -1.454966
 O        -0.617845         1.281696         0.081844
 C        -1.324474         1.235283         1.403975
 H        -3.523684        -0.968928         3.121323
 H        -3.042524         0.517816         3.930524
 H        -4.392232         0.447522         2.691780
 H        -4.266455        -0.876170         0.337616
 H        -2.871621         0.099142        -0.584784
 H        -2.279988        -2.113388         1.472806
 H         0.042474        -1.361038         1.126431
 H        -0.348929        -1.970498        -0.382705
 H        -0.627814         0.809229         2.113817
 H        -1.675615         2.264221         1.574551
