19
Iteration:  3213
 C        -3.184970         0.039541         2.911331
 C        -2.550034         0.122861         1.581135
 C        -3.276099        -0.642680         0.463627
 C        -1.958652        -1.152135         0.959339
 C        -0.542511        -1.087990         0.372808
 C        -0.163400         0.135737        -0.413934
 O         0.563773         0.066469        -1.383467
 O        -0.738615         1.329533         0.016896
 C        -1.571039         1.228385         1.233250
 H        -3.142326         1.076670         3.493013
 H        -4.284940        -0.098384         2.729000
 H        -2.801578        -0.785842         3.529080
 H        -4.171778        -1.260164         0.552167
 H        -3.175977        -0.200710        -0.568612
 H        -2.084479        -2.020341         1.595856
 H         0.073399        -1.239824         1.229548
 H        -0.331140        -1.896085        -0.404745
 H        -0.828861         1.231640         2.024306
 H        -2.250436         2.175767         1.275606
