19
Iteration:   699charge 0 multiplicity 1
 C        -2.830063         0.121934         3.064436
 C        -2.508228         0.085162         1.608550
 C        -3.366237        -0.654532         0.431280
 C        -2.048726        -1.225003         0.960955
 C        -0.644736        -1.209654         0.291002
 C        -0.194701         0.108934        -0.401412
 O         0.851939         0.122879        -1.068328
 O        -0.846472         1.259062        -0.127685
 C        -1.890310         1.378069         0.949081
 H        -3.831877         0.689792         3.358766
 H        -3.029374        -0.917471         3.486397
 H        -1.969876         0.520525         3.690477
 H        -4.227225        -1.162526         0.703674
 H        -3.409934        -0.105126        -0.510186
 H        -2.160200        -2.176228         1.539670
 H         0.135710        -1.239483         1.055998
 H        -0.327074        -1.943670        -0.470124
 H        -1.445084         2.051069         1.728233
 H        -2.779587         1.951498         0.591830
