19
Iteration:   153charge 0 multiplicity 1
 C        -3.434721         0.175947         2.905698
 C        -2.546696         0.089428         1.642852
 C        -3.174224        -0.431481         0.340606
 C        -2.036658        -1.158622         0.931707
 C        -0.551892        -1.229768         0.302496
 C        -0.164592         0.080906        -0.452363
 O         0.451657         0.031458        -1.473861
 O        -0.621308         1.275218         0.122123
 C        -1.359266         1.211053         1.421179
 H        -3.575878        -0.960951         3.065692
 H        -3.044055         0.589089         3.826584
 H        -4.432678         0.557466         2.627608
 H        -4.120804        -0.935053         0.244968
 H        -2.909180         0.251025        -0.440840
 H        -2.299273        -2.038904         1.537713
 H         0.189072        -1.310823         1.175573
 H        -0.416411        -2.026695        -0.440180
 H        -0.558028         0.913288         2.200541
 H        -1.658961         2.245129         1.605387
