19
Iteration:  4723
 C        -3.119159         0.126644         2.826471
 C        -2.420040         0.128609         1.491777
 C        -3.233567        -0.417908         0.307787
 C        -2.077903        -1.160225         1.001747
 C        -0.709500        -1.200323         0.276404
 C        -0.315267         0.082155        -0.406182
 O         0.558451         0.053360        -1.315164
 O        -0.754968         1.300944         0.121815
 C        -1.388602         1.142360         1.420611
 H        -3.898127         0.969520         3.090541
 H        -3.686175        -0.861182         2.810885
 H        -2.307806         0.106750         3.659478
 H        -4.166968        -0.797369         0.604203
 H        -3.118565         0.048123        -0.662584
 H        -2.240523        -2.138750         1.314483
 H         0.096310        -1.444786         0.946845
 H        -0.796010        -2.012062        -0.460195
 H        -0.554470         0.939192         2.035959
 H        -1.775214         2.148890         1.617400
