19
Iteration:   596
 C        -3.396400         0.296631         2.693328
 C        -2.485151         0.072856         1.456865
 C        -3.049005        -0.817695         0.388926
 C        -1.746960        -1.189927         1.120712
 C        -0.424344        -1.114914         0.440599
 C        -0.219246         0.098748        -0.339861
 O         0.183554         0.106719        -1.489262
 O        -0.733189         1.270880         0.145858
 C        -1.479801         1.275787         1.357768
 H        -3.409694         1.330772         2.980183
 H        -4.393039        -0.022870         2.328851
 H        -3.096008        -0.263685         3.609006
 H        -4.001168        -1.393976         0.601891
 H        -3.030001        -0.511252        -0.710107
 H        -1.767458        -2.044800         1.810680
 H         0.404053        -1.068939         1.138765
 H        -0.239925        -1.926710        -0.342920
 H        -0.840593         1.186159         2.253296
 H        -1.987233         2.255061         1.289361
