19
Iteration:  3992charge 0 multiplicity 1
 C        -3.008523         0.179197         2.864216
 C        -2.503855         0.083296         1.483669
 C        -3.195055        -0.388275         0.182214
 C        -2.092736        -1.250866         0.812755
 C        -0.732235        -1.344607         0.225829
 C        -0.271487         0.072916        -0.262478
 O         0.400109         0.046258        -1.271456
 O        -0.607092         1.312659         0.183181
 C        -1.427136         1.269839         1.427081
 H        -4.032943        -0.161389         3.018610
 H        -2.349760        -0.262029         3.669181
 H        -3.017824         1.181049         3.352431
 H        -4.165505        -0.780166         0.445251
 H        -3.157685         0.334850        -0.641785
 H        -2.455447        -2.143919         1.415677
 H         0.046499        -1.663096         1.062946
 H        -0.636878        -1.997182        -0.665532
 H        -0.812684         1.155693         2.336730
 H        -2.092531         2.172353         1.504025
