19
Iteration:  4561
 C        -3.154766         0.250217         2.880539
 C        -2.409670         0.036786         1.579743
 C        -3.095025        -0.412317         0.253778
 C        -2.045307        -1.268559         0.922939
 C        -0.683225        -1.282774         0.262011
 C        -0.284548         0.058232        -0.417334
 O         0.423855         0.196537        -1.359325
 O        -0.742794         1.180957         0.174181
 C        -1.412070         1.196336         1.425202
 H        -4.021514         0.890177         2.684875
 H        -3.576547        -0.570572         3.436700
 H        -2.557472         0.816862         3.597972
 H        -4.178867        -0.477081         0.454937
 H        -2.919128        -0.020326        -0.770922
 H        -2.390544        -2.263723         1.197714
 H         0.068392        -1.371545         1.117293
 H        -0.469306        -2.069256        -0.494384
 H        -0.582286         1.016575         2.227317
 H        -2.015067         2.109449         1.515126
