19
Iteration:  1698charge 0 multiplicity 1
 C        -3.260160         0.078837         2.917146
 C        -2.492632         0.161850         1.543264
 C        -2.934072        -0.579164         0.245756
 C        -1.808395        -1.079116         1.070922
 C        -0.301078        -1.117810         0.523075
 C        -0.286256         0.040566        -0.394440
 O         0.277840        -0.056184        -1.448372
 O        -0.844025         1.211318         0.116280
 C        -1.687207         1.396446         1.175103
 H        -3.847410         0.944136         3.208691
 H        -3.944851        -0.789481         2.895695
 H        -2.593800        -0.223322         3.767124
 H        -3.864260        -1.133924         0.188291
 H        -2.838479         0.072707        -0.686569
 H        -2.037981        -1.955429         1.637025
 H         0.501434        -1.126327         1.374596
 H        -0.176790        -2.078119        -0.031495
 H        -1.157658         1.945741         1.920260
 H        -2.509235         2.077076         0.952800
