19
Iteration:  4258charge 0 multiplicity 1
 C        -3.085280         0.099556         2.924409
 C        -2.438987         0.142387         1.511882
 C        -3.176796        -0.354256         0.262941
 C        -2.071218        -1.163238         0.903401
 C        -0.747348        -1.240882         0.118721
 C        -0.251633         0.059394        -0.336653
 O         0.565862         0.058967        -1.206263
 O        -0.754496         1.215491         0.123999
 C        -1.447365         1.213900         1.408279
 H        -3.465759        -0.896911         3.233748
 H        -2.431761         0.469748         3.707264
 H        -3.941736         0.759439         3.180244
 H        -4.170883        -0.830850         0.419764
 H        -3.036363         0.445314        -0.573787
 H        -2.439894        -2.142640         1.192388
 H         0.069386        -1.733669         0.714351
 H        -0.914426        -1.862986        -0.813209
 H        -0.736889         1.123033         2.287139
 H        -2.045461         2.233371         1.342893
