19
Iteration:  4632charge 0 multiplicity 1
 C        -3.131891        -0.043688         2.810957
 C        -2.396619         0.087735         1.553793
 C        -3.231109        -0.421250         0.403788
 C        -1.991424        -1.162305         1.028132
 C        -0.799264        -1.250221         0.229306
 C        -0.271870         0.040612        -0.343137
 O         0.581199         0.071252        -1.284134
 O        -0.739572         1.332560         0.055452
 C        -1.404211         1.368441         1.295632
 H        -3.673976         0.881445         3.101868
 H        -3.966524        -0.766133         2.882482
 H        -2.528065        -0.179118         3.749520
 H        -4.305357        -0.701964         0.575884
 H        -3.126526        -0.144809        -0.660510
 H        -2.409815        -2.012224         1.634293
 H         0.086157        -1.682777         0.718858
 H        -0.990644        -1.905952        -0.629644
 H        -0.686909         1.258566         2.102966
 H        -1.899976         2.402434         1.328923
