19
Iteration:  4170charge 0 multiplicity 1
 C        -3.208785         0.072170         2.889384
 C        -2.387242         0.071996         1.558590
 C        -3.013482        -0.217933         0.216510
 C        -1.996782        -1.207305         0.970662
 C        -0.787831        -1.277326         0.238571
 C        -0.315235         0.009386        -0.356212
 O         0.397022         0.118403        -1.314625
 O        -0.671584         1.214121         0.208614
 C        -1.409699         1.216866         1.375007
 H        -3.398185        -0.966698         3.278340
 H        -2.602594         0.676227         3.560432
 H        -4.088411         0.569984         2.539026
 H        -4.120270        -0.363921         0.102334
 H        -2.590273         0.108295        -0.743319
 H        -2.496797        -2.015558         1.378999
 H         0.158072        -1.749808         0.711868
 H        -0.907900        -1.839870        -0.758339
 H        -0.866019         1.130131         2.339092
 H        -2.023945         2.153953         1.473266
