19
Iteration:  1284charge 0 multiplicity 1
 C        -3.258469         0.326548         2.810490
 C        -2.396986         0.043838         1.649391
 C        -3.007062        -0.640211         0.352595
 C        -1.882572        -1.273083         1.122384
 C        -0.535605        -1.104029         0.447070
 C        -0.371538         0.055694        -0.459647
 O         0.511000         0.118192        -1.323992
 O        -0.962484         1.243520        -0.116609
 C        -1.515377         1.200607         1.280646
 H        -3.885576         1.139867         2.580216
 H        -3.834057        -0.571851         2.982391
 H        -2.720387         0.463392         3.742936
 H        -4.056775        -0.936826         0.596855
 H        -2.892081        -0.221999        -0.601696
 H        -1.946000        -2.251865         1.656122
 H         0.289804        -0.958693         1.274872
 H        -0.198983        -2.054398        -0.080177
 H        -0.611134         1.180646         1.794886
 H        -2.077424         2.148133         1.547450
