19
Iteration:  3714charge 0 multiplicity 1
 C        -3.242829         0.183376         2.739900
 C        -2.463451         0.195028         1.462139
 C        -3.149935        -0.351772         0.231587
 C        -2.089591        -1.139481         1.068269
 C        -0.762765        -1.286671         0.307426
 C        -0.329095         0.086383        -0.405821
 O         0.323986         0.102631        -1.427984
 O        -0.523620         1.258267         0.238638
 C        -1.230726         1.067291         1.527216
 H        -3.243524        -0.884934         3.069241
 H        -2.839936         0.843684         3.481641
 H        -4.285528         0.510544         2.625476
 H        -4.139494        -0.791954         0.360633
 H        -2.830518        -0.247140        -0.769953
 H        -2.305849        -2.083513         1.650864
 H         0.048215        -1.775941         0.885937
 H        -0.859587        -2.007183        -0.564847
 H        -0.521660         0.582098         2.274099
 H        -1.368291         2.078332         1.736205
