19
Iteration:  3855charge 0 multiplicity 1
 C        -3.135874         0.328545         2.972142
 C        -2.517781         0.019585         1.570906
 C        -3.252540        -0.252955         0.326200
 C        -2.054369        -1.216973         0.788924
 C        -0.602471        -1.316219         0.208014
 C        -0.193147        -0.001124        -0.380833
 O         0.501267         0.138502        -1.375854
 O        -0.696252         1.130535         0.213823
 C        -1.483437         1.124782         1.383196
 H        -4.156998        -0.111325         2.948051
 H        -2.467924        -0.217034         3.608048
 H        -3.073417         1.396002         3.260033
 H        -4.300414        -0.471868         0.555257
 H        -3.061736         0.430491        -0.505154
 H        -2.459300        -2.161156         1.267019
 H        -0.010889        -1.637360         1.080440
 H        -0.455188        -2.111786        -0.579752
 H        -0.809497         1.327068         2.230080
 H        -1.967453         2.055508         1.192473
