19
Iteration:  2678charge 0 multiplicity 1
 C        -3.052537         0.053557         2.894180
 C        -2.570166         0.185541         1.457834
 C        -3.170977        -0.820746         0.401043
 C        -1.955278        -1.166043         1.098599
 C        -0.586891        -1.074325         0.379888
 C        -0.251345         0.143336        -0.371653
 O         0.596552         0.077663        -1.208431
 O        -0.896493         1.315402        -0.132155
 C        -1.585884         1.352760         1.222922
 H        -3.964667         0.687031         2.933328
 H        -3.450929        -0.921192         3.187240
 H        -2.146255         0.230108         3.454239
 H        -4.071114        -1.171808         0.720777
 H        -3.184541        -0.838954        -0.715883
 H        -1.918295        -1.900973         1.932703
 H         0.134515        -1.244574         1.122182
 H        -0.423070        -1.863231        -0.401945
 H        -0.763577         1.338909         1.976460
 H        -2.101788         2.352250         1.128476
