19
Iteration:  3807charge 0 multiplicity 1
 C        -3.198448        -0.053893         2.826327
 C        -2.475353         0.238107         1.441066
 C        -3.166024        -0.296064         0.324284
 C        -2.022199        -1.099712         0.996798
 C        -0.725011        -1.203187         0.292197
 C        -0.261934         0.023630        -0.336619
 O         0.372456        -0.068548        -1.377037
 O        -0.625310         1.285456         0.136072
 C        -1.362466         1.275084         1.447290
 H        -4.167247        -0.290109         2.454788
 H        -2.750974        -0.839517         3.481825
 H        -3.184070         0.894320         3.353476
 H        -4.135709        -0.718715         0.425478
 H        -2.769846        -0.076193        -0.693555
 H        -2.383943        -1.873294         1.638371
 H        -0.059849        -1.615889         0.974998
 H        -0.678075        -1.844795        -0.557868
 H        -0.538583         0.942682         2.048341
 H        -1.511804         2.384296         1.720351
