19
Iteration:   345charge 0 multiplicity 1
 C        -2.870473         0.111985         2.994176
 C        -2.407057         0.095034         1.565197
 C        -3.406068        -0.549732         0.599669
 C        -2.097584        -1.210151         0.875601
 C        -0.840699        -1.299172         0.018895
 C        -0.123154         0.038656        -0.369030
 O         0.913741         0.186538        -0.919419
 O        -0.768141         1.227426        -0.033483
 C        -1.822940         1.399319         1.010814
 H        -2.133303         0.668701         3.557139
 H        -3.824151         0.584673         3.012717
 H        -2.911379        -0.868264         3.376482
 H        -4.313382        -1.143981         0.980019
 H        -3.558715         0.109388        -0.257466
 H        -2.226814        -2.109633         1.463801
 H        -0.155005        -1.905949         0.523210
 H        -1.093485        -1.893860        -0.893121
 H        -1.430278         2.112231         1.679488
 H        -2.609849         1.832813         0.358817
