19
Iteration:  1618charge 0 multiplicity 1
 C        -3.339271         0.409969         2.834152
 C        -2.424408        -0.004979         1.596446
 C        -3.008279        -0.660890         0.315127
 C        -1.779413        -1.301105         1.273378
 C        -0.453885        -1.223800         0.383216
 C        -0.256619         0.076506        -0.421005
 O         0.422804         0.256103        -1.388553
 O        -0.905216         1.161340        -0.047909
 C        -1.628915         1.240562         1.277386
 H        -4.177431         1.001390         2.407080
 H        -3.758878        -0.427894         3.369025
 H        -2.743328         1.059860         3.444545
 H        -4.020449        -0.943508         0.614957
 H        -2.752314        -0.337271        -0.653578
 H        -1.860822        -2.318437         1.744352
 H         0.415132        -1.465937         0.957594
 H        -0.575406        -2.039187        -0.368126
 H        -0.760525         1.208395         1.891872
 H        -2.123041         2.185432         1.355839
