19
Iteration:    68
 C        -3.423095         0.124293         2.639157
 C        -2.501069         0.177554         1.464651
 C        -3.084623        -0.522589         0.208508
 C        -1.882537        -1.163150         0.910441
 C        -0.445304        -1.137492         0.540535
 C        -0.271578         0.023651        -0.419910
 O        -0.026553         0.080334        -1.619187
 O        -0.417634         1.209177         0.374106
 C        -1.346438         1.205914         1.555325
 H        -4.364385        -0.141832         2.392596
 H        -3.155695        -0.465526         3.566048
 H        -3.498602         1.210204         2.913867
 H        -4.074784        -0.879102         0.265024
 H        -2.886595        -0.123099        -0.788934
 H        -2.070646        -2.014696         1.722314
 H         0.051893        -0.735173         1.430000
 H         0.007790        -2.080682         0.483393
 H        -0.702254         0.864869         2.355704
 H        -1.509662         2.270005         1.675405
