19
Iteration:  1456
 C        -3.231432         0.164616         2.777998
 C        -2.480367         0.163193         1.522079
 C        -3.159899        -0.809069         0.464683
 C        -1.851569        -1.179103         1.222527
 C        -0.622759        -1.162172         0.347440
 C        -0.243535         0.099539        -0.365679
 O         0.574615         0.103650        -1.308815
 O        -0.952523         1.239797        -0.121580
 C        -1.426096         1.420653         1.218041
 H        -4.218913         0.732755         2.708772
 H        -3.595167        -0.872610         2.897730
 H        -2.721216         0.569952         3.687199
 H        -4.067428        -1.127728         0.867489
 H        -3.167878        -0.384378        -0.536929
 H        -1.965941        -1.975993         1.970050
 H         0.160970        -1.552319         0.950339
 H        -0.613589        -1.904990        -0.503124
 H        -0.542321         1.278254         2.004872
 H        -1.796487         2.411282         1.474170
