19
Iteration:  2347
 C        -2.997816         0.247234         2.985817
 C        -2.544039         0.041230         1.538664
 C        -3.323605        -0.730587         0.465130
 C        -1.925838        -1.244273         1.013238
 C        -0.582221        -1.184873         0.344562
 C        -0.142190         0.097664        -0.407660
 O         0.781306         0.323995        -1.197328
 O        -0.978046         1.144023        -0.199840
 C        -1.765355         1.265591         1.154796
 H        -3.387967         1.304443         3.192954
 H        -3.860781        -0.323737         3.354324
 H        -2.207551         0.108371         3.741317
 H        -4.150015        -1.448066         0.779046
 H        -3.225610        -0.389304        -0.576182
 H        -1.990364        -2.079865         1.698225
 H         0.114159        -1.322697         1.205407
 H        -0.347674        -1.959126        -0.350064
 H        -0.971353         1.470119         1.841752
 H        -2.213946         2.287532         1.209100
