19
Iteration:  3451charge 0 multiplicity 1
 C        -3.157090         0.272088         2.960722
 C        -2.439842         0.070410         1.580497
 C        -3.069047        -0.306161         0.303771
 C        -2.039770        -1.266888         0.802931
 C        -0.640653        -1.336426         0.230936
 C        -0.225760         0.021469        -0.382929
 O         0.459177         0.150421        -1.366034
 O        -0.774840         1.167121         0.141458
 C        -1.514030         1.213496         1.439604
 H        -2.687416         0.973462         3.666114
 H        -4.189863         0.355754         2.747375
 H        -3.220737        -0.666792         3.526120
 H        -4.110987        -0.794270         0.209718
 H        -2.760111         0.267541        -0.536693
 H        -2.398349        -2.023915         1.519572
 H         0.025999        -1.458596         1.037756
 H        -0.479645        -2.158662        -0.524165
 H        -0.851151         1.299347         2.263876
 H        -2.003244         2.145101         1.341413
