19
Iteration:  1272charge 0 multiplicity 1
 C        -3.198838         0.172480         2.775708
 C        -2.361747         0.066585         1.540515
 C        -3.092502        -0.567963         0.397116
 C        -1.921881        -1.259444         1.141837
 C        -0.576964        -1.067673         0.554635
 C        -0.328607         0.128228        -0.424763
 O         0.515181         0.095841        -1.276413
 O        -1.072603         1.240926        -0.174583
 C        -1.366221         1.191024         1.235039
 H        -3.999903         0.862681         2.567862
 H        -3.696304        -0.751257         3.065193
 H        -2.664800         0.616397         3.621241
 H        -4.087850        -1.070045         0.401755
 H        -2.763898        -0.252113        -0.554808
 H        -2.124100        -2.062871         1.871291
 H         0.275644        -0.983390         1.355595
 H        -0.350177        -1.981715        -0.116002
 H        -0.536166         1.081183         1.868345
 H        -1.743539         2.231536         1.373900
