19
Iteration:  3132charge 0 multiplicity 1
 C        -3.068369         0.257186         2.938896
 C        -2.463876         0.078223         1.501951
 C        -3.156111        -0.689567         0.409316
 C        -1.854816        -1.312727         1.039234
 C        -0.583355        -1.309660         0.210319
 C        -0.275464         0.164018        -0.428027
 O         0.644308         0.189458        -1.201969
 O        -0.950225         1.266097         0.023347
 C        -1.718393         1.304467         1.232329
 H        -2.915908        -0.526978         3.662922
 H        -2.826372         1.211829         3.405100
 H        -4.200766         0.256852         2.876011
 H        -4.088047        -1.194698         0.295952
 H        -2.904686        -0.034041        -0.479642
 H        -2.030882        -2.055821         1.850232
 H         0.303303        -1.680153         0.875298
 H        -0.531103        -1.823880        -0.736236
 H        -0.918893         1.530229         1.994561
 H        -2.309437         2.162705         1.152991
