19
Iteration:  3964
 C        -2.994919         0.175347         2.928499
 C        -2.496056         0.056244         1.562909
 C        -3.120739        -0.245780         0.201803
 C        -2.129380        -1.206546         0.913948
 C        -0.797504        -1.312903         0.194059
 C        -0.220806         0.011747        -0.395388
 O         0.549751         0.126175        -1.316473
 O        -0.694540         1.138022         0.191360
 C        -1.537145         1.225512         1.388709
 H        -3.664053        -0.616934         3.354252
 H        -2.328087         0.246115         3.765999
 H        -3.664423         1.033443         3.068191
 H        -4.149184        -0.452791         0.276457
 H        -2.773852         0.409611        -0.631338
 H        -2.461543        -2.079359         1.481947
 H        -0.091616        -1.450968         0.936565
 H        -0.700931        -2.136131        -0.542359
 H        -0.920176         1.276178         2.300012
 H        -2.127370         2.131955         1.342654
