19
Iteration:  4151
 C        -3.272718         0.071267         2.816232
 C        -2.341455         0.130940         1.568134
 C        -3.078199        -0.283086         0.304131
 C        -2.083921        -1.218919         0.868241
 C        -0.699514        -1.302470         0.261994
 C        -0.251473         0.024021        -0.376807
 O         0.360609         0.093630        -1.411776
 O        -0.626762         1.217284         0.235688
 C        -1.395559         1.274171         1.470684
 H        -3.555695        -0.989203         2.863200
 H        -2.663730         0.178020         3.721660
 H        -4.147470         0.747232         2.762010
 H        -4.164782        -0.559709         0.342869
 H        -2.722339         0.359045        -0.575796
 H        -2.398499        -2.104514         1.405934
 H        -0.030626        -1.613316         1.095656
 H        -0.682821        -2.122360        -0.470129
 H        -0.740355         1.586816         2.272556
 H        -1.918397         2.229282         1.336637
