19
Iteration:   559charge 0 multiplicity 1
 C        -3.292179         0.112937         2.669425
 C        -2.396849         0.164373         1.478244
 C        -2.855231        -0.719527         0.151703
 C        -1.840303        -1.247834         1.204301
 C        -0.455291        -1.106774         0.611128
 C        -0.356602         0.057851        -0.349132
 O        -0.093161         0.038309        -1.555996
 O        -0.505751         1.303545         0.259572
 C        -1.543226         1.416745         1.273826
 H        -3.787370         1.071692         2.842096
 H        -4.154436        -0.611988         2.495576
 H        -2.894920        -0.443794         3.584771
 H        -3.827774        -1.144561         0.085285
 H        -2.387547        -0.353860        -0.707297
 H        -1.996475        -2.099287         1.862886
 H         0.243963        -1.014926         1.563049
 H        -0.111238        -2.033611         0.179248
 H        -1.144205         1.856109         2.242624
 H        -2.248461         2.210715         1.004494
