19
Iteration:   470charge 0 multiplicity 1
 C        -3.341596         0.195292         2.764123
 C        -2.425737         0.134021         1.480815
 C        -3.033420        -0.629330         0.300266
 C        -1.894914        -1.201502         1.139525
 C        -0.537329        -1.176404         0.486959
 C        -0.290530         0.109541        -0.399780
 O         0.363111         0.131173        -1.445015
 O        -0.912260         1.290914         0.016135
 C        -1.337647         1.178658         1.385039
 H        -4.302189        -0.227969         2.312434
 H        -3.098863        -0.508769         3.590277
 H        -3.424050         1.287453         2.978204
 H        -4.033003        -0.956699         0.542463
 H        -2.755214        -0.453690        -0.702668
 H        -1.948550        -1.998738         1.968301
 H         0.183976        -1.223602         1.422509
 H        -0.329857        -2.134558        -0.018872
 H        -0.419872         0.979641         2.039974
 H        -1.523016         2.204127         1.723070
