19
Iteration:   112
 C        -3.330061         0.296052         2.626425
 C        -2.337503         0.096604         1.513620
 C        -2.886003        -0.486589         0.164607
 C        -1.976952        -1.309648         0.978775
 C        -0.567410        -1.386579         0.407628
 C        -0.331917         0.049413        -0.306909
 O         0.045797         0.195528        -1.457857
 O        -0.649276         1.263320         0.292442
 C        -1.325183         1.232387         1.517517
 H        -4.018321        -0.431206         2.713500
 H        -2.826070         0.350853         3.628280
 H        -3.896855         1.238527         2.478395
 H        -3.905072        -0.791016        -0.098470
 H        -2.365994         0.055979        -0.576155
 H        -2.333295        -2.151289         1.762799
 H         0.167452        -1.566803         1.213792
 H        -0.279205        -2.162912        -0.260120
 H        -0.666148         1.114826         2.330551
 H        -1.929575         2.140388         1.523033
