19
Iteration:  2420charge 0 multiplicity 1
 C        -3.204244         0.217078         2.988145
 C        -2.530690         0.110163         1.647715
 C        -3.118225        -0.650953         0.496965
 C        -1.775885        -1.181099         1.036119
 C        -0.486680        -1.244460         0.268107
 C        -0.122304         0.027029        -0.370945
 O         0.565987         0.229044        -1.356339
 O        -0.835173         1.131921         0.005020
 C        -1.868278         1.335590         1.085733
 H        -4.122496         0.791244         2.923997
 H        -3.603462        -0.675361         3.487231
 H        -2.540269         0.727053         3.759166
 H        -4.090387        -1.304551         0.693811
 H        -3.157531        -0.049893        -0.447717
 H        -1.969088        -2.189664         1.428296
 H         0.415854        -1.419767         0.877720
 H        -0.441488        -1.989632        -0.567008
 H        -1.246425         1.856327         1.900139
 H        -2.418295         2.155053         0.629791
