19
Iteration:   277
 C        -2.955346         0.157665         2.852882
 C        -2.478142         0.131343         1.437091
 C        -3.492785        -0.694663         0.645150
 C        -2.077566        -1.208321         0.962956
 C        -0.926213        -1.175276        -0.082405
 C        -0.193976         0.118317        -0.282214
 O         0.917880         0.089336        -0.826989
 O        -0.822313         1.284061        -0.136809
 C        -1.510211         1.317935         1.141307
 H        -3.758294         0.763535         3.020676
 H        -3.104275        -0.882109         3.243730
 H        -2.041575         0.564728         3.329129
 H        -4.318220        -1.097161         1.210851
 H        -3.580229        -0.326550        -0.411079
 H        -1.776569        -1.982809         1.806489
 H        -0.130324        -1.940256         0.095024
 H        -1.177504        -1.374002        -1.121893
 H        -0.724043         1.303354         1.907861
 H        -2.061512         2.273721         1.138200
