19
Iteration:  1329
 C        -3.278917         0.294430         2.807046
 C        -2.494605         0.129000         1.455546
 C        -3.052047        -0.781002         0.445213
 C        -1.776546        -1.155011         1.207247
 C        -0.541226        -1.238996         0.376189
 C        -0.199826         0.070909        -0.374060
 O         0.286386         0.161062        -1.479675
 O        -0.609898         1.228624         0.197413
 C        -1.675203         1.309548         1.126296
 H        -3.512846         1.309612         2.958245
 H        -4.182962        -0.311285         2.820908
 H        -2.693019        -0.135270         3.604927
 H        -3.932021        -1.289469         0.776172
 H        -3.015823        -0.469078        -0.621503
 H        -1.977581        -2.017498         1.891086
 H         0.399567        -1.415605         1.066718
 H        -0.634294        -2.124143        -0.277508
 H        -1.431228         1.694008         2.061557
 H        -2.378899         2.018567         0.599891
