19
Iteration:   710
 C        -2.840362         0.183536         3.109602
 C        -2.505076        -0.001155         1.544831
 C        -3.354868        -0.634315         0.548219
 C        -1.982212        -1.213511         0.871011
 C        -0.638658        -1.207049         0.153625
 C        -0.139683         0.105695        -0.329145
 O         0.830664         0.103311        -1.055909
 O        -0.846412         1.279444        -0.040476
 C        -1.961480         1.352799         0.919763
 H        -3.870931         0.794082         3.168193
 H        -2.854480        -0.806193         3.677451
 H        -2.095293         0.937487         3.503723
 H        -4.196103        -1.186345         0.737518
 H        -3.397209        -0.085622        -0.389094
 H        -2.226242        -2.086254         1.521023
 H        -0.002115        -1.498506         0.991156
 H        -0.511598        -2.070331        -0.537072
 H        -1.602433         2.038011         1.736163
 H        -2.674210         1.844479         0.208858
