19
Iteration:  3460charge 0 multiplicity 1
 C        -3.170940         0.229140         2.958970
 C        -2.472134         0.092030         1.662464
 C        -3.158628        -0.335731         0.298149
 C        -1.980634        -1.187943         0.809100
 C        -0.578043        -1.328840         0.158037
 C        -0.134994        -0.026673        -0.359682
 O         0.469732         0.131939        -1.401819
 O        -0.800911         1.109809         0.180615
 C        -1.523947         1.274615         1.434406
 H        -2.942066         1.166232         3.469174
 H        -4.252374         0.472861         2.764511
 H        -3.028369        -0.681967         3.626626
 H        -4.307024        -0.395589         0.240402
 H        -2.909507         0.371471        -0.491983
 H        -2.257741        -2.164327         1.230725
 H         0.060031        -1.629688         0.942990
 H        -0.587739        -2.194324        -0.499162
 H        -0.835089         1.502593         2.252783
 H        -2.166185         2.115552         1.352729
