19
Iteration:  4125charge 0 multiplicity 1
 C        -3.310129         0.110164         2.902498
 C        -2.516532         0.145927         1.525739
 C        -3.258879        -0.364567         0.268407
 C        -2.033294        -1.119258         0.890126
 C        -0.553378        -1.167652         0.306660
 C        -0.179455         0.068030        -0.406446
 O         0.347587         0.054336        -1.493055
 O        -0.519404         1.199523         0.238220
 C        -1.403824         1.124550         1.470740
 H        -4.138927        -0.600513         2.717919
 H        -2.625922        -0.358909         3.633530
 H        -3.641731         1.126126         3.019077
 H        -4.229226        -0.878251         0.368680
 H        -3.222677         0.331907        -0.511356
 H        -2.399862        -2.036372         1.380542
 H         0.138742        -1.317187         1.217384
 H        -0.486111        -2.123337        -0.299937
 H        -0.717363         1.029449         2.361026
 H        -1.618381         2.237271         1.580100
