19
Iteration:   660
 C        -3.051915         0.113583         2.922235
 C        -2.495819         0.157631         1.454589
 C        -3.185112        -0.635456         0.379121
 C        -1.894216        -1.188722         1.029972
 C        -0.463822        -1.142880         0.441386
 C        -0.237811         0.101264        -0.326445
 O         0.658659         0.134071        -1.159978
 O        -1.152539         1.166101        -0.205558
 C        -1.588846         1.348141         1.193676
 H        -3.367849         0.994598         3.360640
 H        -3.999857        -0.385065         2.832647
 H        -2.286092        -0.295163         3.574910
 H        -4.138597        -1.130788         0.689637
 H        -3.194308        -0.267429        -0.656778
 H        -2.065331        -1.913786         1.778622
 H         0.321925        -1.475713         1.178493
 H        -0.421136        -2.010902        -0.225893
 H        -0.713677         1.343780         1.883801
 H        -1.991352         2.335459         1.177868
