19
Iteration:  4964charge 0 multiplicity 1
 C        -3.184308         0.255492         2.898312
 C        -2.483342         0.057465         1.566741
 C        -3.163256        -0.398502         0.412117
 C        -2.036192        -1.232447         0.942005
 C        -0.668613        -1.276166         0.183721
 C        -0.184768         0.077335        -0.371948
 O         0.495254         0.128478        -1.394237
 O        -0.682946         1.182980         0.202945
 C        -1.515066         1.213868         1.305308
 H        -3.605410         1.184431         2.897507
 H        -3.911433        -0.520369         2.992448
 H        -2.461333         0.190694         3.683977
 H        -4.092574        -0.973520         0.484340
 H        -3.100052         0.271127        -0.528232
 H        -2.329852        -2.283227         1.279388
 H         0.177177        -1.524772         0.902827
 H        -0.555332        -2.019917        -0.673533
 H        -0.951504         1.232817         2.328963
 H        -2.096837         2.132050         1.346479
