19
Iteration:  2648
 C        -3.268021         0.267197         2.813221
 C        -2.477434         0.038810         1.621030
 C        -2.975526        -0.644044         0.453031
 C        -1.818463        -1.251720         1.162305
 C        -0.511258        -1.200797         0.340153
 C        -0.237106         0.071032        -0.414204
 O         0.502197         0.246207        -1.370143
 O        -0.915946         1.176593        -0.024525
 C        -1.678164         1.262116         1.235324
 H        -3.643739         1.273292         2.594750
 H        -4.044762        -0.513955         2.856442
 H        -2.650697         0.316891         3.764340
 H        -3.895890        -1.168810         0.674944
 H        -2.749120        -0.157698        -0.572623
 H        -2.051524        -2.153147         1.697339
 H         0.349560        -1.515960         0.945794
 H        -0.624617        -2.004790        -0.427346
 H        -0.916530         1.570241         2.012110
 H        -2.323796         2.116320         1.124464
