19
Iteration:  4963
 C        -3.181882         0.256824         2.898012
 C        -2.485076         0.060823         1.565723
 C        -3.163506        -0.401660         0.402730
 C        -2.040035        -1.245295         0.948179
 C        -0.669189        -1.261467         0.178888
 C        -0.178980         0.080541        -0.378589
 O         0.488089         0.124214        -1.387888
 O        -0.681609         1.185381         0.205418
 C        -1.505035         1.209215         1.312839
 H        -3.595559         1.214199         2.877654
 H        -3.916335        -0.530493         2.994118
 H        -2.430002         0.213984         3.663389
 H        -4.107004        -0.947319         0.480713
 H        -3.146345         0.250333        -0.516777
 H        -2.294605        -2.296298         1.247721
 H         0.172688        -1.512036         0.917510
 H        -0.548880        -2.052362        -0.653329
 H        -0.995520         1.227759         2.317447
 H        -2.114182         2.128034         1.346648
