19
Iteration:  2587charge 0 multiplicity 1
 C        -3.206247         0.152768         2.741270
 C        -2.487534         0.140659         1.426700
 C        -3.022397        -0.794260         0.280481
 C        -1.879237        -1.168736         1.223790
 C        -0.513524        -1.077562         0.552691
 C        -0.237322         0.122697        -0.400330
 O         0.249759         0.106349        -1.503528
 O        -0.786470         1.291856         0.097964
 C        -1.483609         1.249843         1.307577
 H        -4.056404         0.836833         2.868064
 H        -3.868069        -0.692939         2.835844
 H        -2.687694         0.148726         3.668193
 H        -4.118939        -0.960046         0.292071
 H        -2.768231        -0.615194        -0.738418
 H        -2.045993        -1.907524         1.999421
 H         0.266194        -0.931271         1.320732
 H        -0.280891        -1.955293         0.006427
 H        -0.718534         0.994466         2.045072
 H        -1.942523         2.248182         1.483328
