19
Iteration:  2247charge 0 multiplicity 1
 C        -3.175901         0.154278         2.945307
 C        -2.548873         0.060403         1.499107
 C        -3.236778        -0.698381         0.392516
 C        -1.821273        -1.234069         1.025511
 C        -0.447224        -1.139206         0.394288
 C        -0.167524         0.099664        -0.393199
 O         0.501866         0.108944        -1.382502
 O        -0.782452         1.287820        -0.010292
 C        -1.738442         1.366380         1.236530
 H        -3.879780         1.005034         3.024464
 H        -3.619139        -0.742121         3.361860
 H        -2.485757         0.435717         3.776795
 H        -4.049633        -1.304564         0.805505
 H        -3.247912        -0.488018        -0.725980
 H        -1.905439        -2.137632         1.651777
 H         0.257727        -1.145761         1.260159
 H        -0.224198        -2.042953        -0.108534
 H        -1.100568         1.638641         2.080771
 H        -2.383904         2.165195         0.833937
