19
Iteration:  3418charge 0 multiplicity 1
 C        -3.169628         0.114557         2.822180
 C        -2.442914         0.145537         1.457402
 C        -3.198800        -0.492910         0.278812
 C        -2.084264        -1.217016         0.972097
 C        -0.713510        -1.150871         0.344040
 C        -0.246301         0.138024        -0.387610
 O         0.415987         0.034749        -1.370509
 O        -0.726058         1.329124         0.101662
 C        -1.310624         1.139778         1.486475
 H        -2.549762         0.252824         3.723504
 H        -3.838896         0.964454         2.881403
 H        -3.625500        -0.875509         2.840887
 H        -4.267381        -0.876793         0.345012
 H        -2.906289        -0.110086        -0.702612
 H        -2.112593        -1.937888         1.789650
 H        -0.012105        -1.271959         1.153748
 H        -0.364340        -1.905606        -0.416602
 H        -0.557482         0.733094         2.125550
 H        -1.578429         2.122429         1.762114
