19
Iteration:   618
 C        -3.417180         0.383387         2.818251
 C        -2.451526         0.010799         1.637458
 C        -3.013052        -0.674079         0.419758
 C        -1.830508        -1.336203         1.098123
 C        -0.405791        -1.176044         0.492081
 C        -0.271411         0.084311        -0.490223
 O         0.469405         0.242939        -1.513694
 O        -0.899812         1.209502         0.017699
 C        -1.572114         1.166566         1.333889
 H        -3.273380         1.433131         2.967910
 H        -4.444162         0.183472         2.481950
 H        -3.118642        -0.047205         3.779163
 H        -4.087358        -1.092516         0.506584
 H        -2.891306        -0.239308        -0.622198
 H        -1.922146        -2.296377         1.653595
 H         0.327563        -1.056385         1.294204
 H        -0.065367        -1.986087        -0.238695
 H        -0.720952         1.281016         2.004604
 H        -2.143276         2.111386         1.278032
