19
Iteration:  3485charge 0 multiplicity 1
 C        -3.203498         0.130558         2.956716
 C        -2.502534         0.146736         1.625726
 C        -3.190075        -0.316819         0.391250
 C        -2.019503        -1.177660         0.898001
 C        -0.710882        -1.267134         0.205327
 C        -0.191323         0.013116        -0.403262
 O         0.548044         0.122649        -1.376762
 O        -0.627780         1.173851         0.121733
 C        -1.492607         1.218510         1.336973
 H        -3.479977         1.092131         3.442332
 H        -4.191720        -0.193216         2.744260
 H        -2.705558        -0.597624         3.561184
 H        -4.160868        -0.869968         0.435281
 H        -3.217098         0.259750        -0.542875
 H        -2.331961        -2.043860         1.561896
 H         0.076416        -1.676994         0.814593
 H        -0.853939        -2.077476        -0.552996
 H        -0.845421         1.315613         2.164599
 H        -2.038395         2.119440         1.210162
