19
Iteration:   856
 C        -2.243864         0.209839         2.948120
 C        -2.521627         0.122079         1.396600
 C        -3.476575        -0.955664         0.838954
 C        -2.026137        -1.210886         0.870724
 C        -1.040413        -1.088727        -0.260239
 C        -0.167581         0.160120        -0.232812
 O         0.998125         0.141864        -0.437823
 O        -0.817968         1.376975         0.138575
 C        -2.237003         1.231571         0.429952
 H        -2.953830         0.999484         3.363835
 H        -2.065071        -0.795285         3.429683
 H        -1.195072         0.693894         3.100091
 H        -4.184738        -1.514971         1.446305
 H        -3.978814        -0.667021        -0.130505
 H        -1.665182        -1.897317         1.620324
 H        -0.194826        -1.801575        -0.221486
 H        -1.514304        -1.195372        -1.209926
 H        -2.532943         2.150211         0.936921
 H        -2.789581         1.150763        -0.520647
