19
Iteration:  4702
 C        -3.050128         0.158308         2.932527
 C        -2.472525         0.091910         1.511815
 C        -3.315579        -0.401584         0.341338
 C        -2.125094        -1.303813         0.771784
 C        -0.654091        -1.192029         0.278934
 C        -0.189104         0.051261        -0.332198
 O         0.561931         0.109263        -1.306471
 O        -0.794284         1.266097         0.107437
 C        -1.414618         1.204367         1.358015
 H        -3.490808         1.204526         3.163936
 H        -3.946683        -0.401488         3.295687
 H        -2.269577         0.157459         3.755968
 H        -4.289506        -0.787186         0.450149
 H        -3.261515         0.088202        -0.643546
 H        -2.267230        -2.225279         1.304615
 H        -0.220449        -1.425512         1.220748
 H        -0.382877        -2.034158        -0.357921
 H        -0.630524         0.942308         1.977353
 H        -1.630722         2.212143         1.552337
