19
Iteration:   706
 C        -2.837495         0.163969         3.108719
 C        -2.506102         0.012637         1.581607
 C        -3.358985        -0.640830         0.499605
 C        -2.007780        -1.204812         0.904974
 C        -0.643234        -1.213169         0.200066
 C        -0.139711         0.120255        -0.373798
 O         0.828308         0.103697        -1.051093
 O        -0.846875         1.271040        -0.078112
 C        -1.928730         1.378708         0.931302
 H        -3.745321         0.637741         3.266286
 H        -2.998426        -0.776998         3.565755
 H        -2.094300         0.771222         3.511140
 H        -4.328850        -1.229953         0.761421
 H        -3.351920        -0.079411        -0.462471
 H        -2.303498        -2.127071         1.543258
 H         0.086836        -1.395570         1.004731
 H        -0.320281        -2.064179        -0.509646
 H        -1.591700         2.016950         1.722296
 H        -2.741985         1.888813         0.324190
