19
Iteration:   638
 C        -3.275967         0.270169         2.904969
 C        -2.437745         0.018662         1.648355
 C        -3.012998        -0.600230         0.366696
 C        -1.879190        -1.262231         1.123160
 C        -0.491610        -1.118092         0.390803
 C        -0.254770         0.084674        -0.402161
 O         0.578896         0.221389        -1.309872
 O        -1.078211         1.157494        -0.145246
 C        -1.554281         1.173346         1.220900
 H        -3.305072         1.288196         3.134899
 H        -4.319426         0.107533         2.682812
 H        -2.752398        -0.115516         3.775500
 H        -3.965072        -1.136269         0.380338
 H        -2.818859        -0.066721        -0.582041
 H        -2.084118        -2.197004         1.536624
 H         0.246463        -1.065664         1.263489
 H        -0.197046        -2.085008        -0.058810
 H        -0.620748         1.359879         1.777038
 H        -2.084571         2.087575         1.221079
