19
Iteration:  1957charge 0 multiplicity 1
 C        -3.273596         0.215168         2.860886
 C        -2.436363         0.119504         1.567572
 C        -3.188968        -0.799781         0.544305
 C        -1.861985        -1.171309         1.191264
 C        -0.648717        -1.152084         0.258751
 C        -0.167212         0.117403        -0.447979
 O         0.717726         0.277200        -1.265995
 O        -1.000778         1.136603        -0.143226
 C        -1.554283         1.299780         1.192633
 H        -4.176347         0.866720         2.845893
 H        -3.669529        -0.771247         3.145675
 H        -2.643437         0.463285         3.734437
 H        -4.194512        -1.176788         0.875119
 H        -3.291901        -0.416140        -0.438960
 H        -1.672227        -2.003161         1.854624
 H         0.186175        -1.738252         0.862276
 H        -0.755948        -1.887231        -0.624516
 H        -0.686566         1.191633         1.875506
 H        -1.753459         2.350552         1.288650
