19
Iteration:  1694
 C        -3.265870         0.059084         2.921678
 C        -2.467143         0.141833         1.550400
 C        -2.953400        -0.615055         0.237864
 C        -1.811531        -1.083687         1.081676
 C        -0.340791        -1.112622         0.563779
 C        -0.252540         0.014329        -0.414520
 O         0.285514        -0.027110        -1.463075
 O        -0.825948         1.239708         0.071766
 C        -1.691558         1.411833         1.208036
 H        -3.841748         1.005490         3.088224
 H        -3.985473        -0.760491         2.852813
 H        -2.630376        -0.157580         3.779797
 H        -3.979300        -1.048469         0.342130
 H        -2.781182         0.013150        -0.617469
 H        -2.033850        -2.085579         1.569152
 H         0.376197        -1.045068         1.279690
 H        -0.279586        -2.109979         0.095740
 H        -1.087347         1.897949         2.044627
 H        -2.479814         2.135021         0.920358
