19
Iteration:  4173
 C        -3.237033         0.097813         2.910592
 C        -2.385760         0.085512         1.521687
 C        -3.025528        -0.222886         0.232978
 C        -1.994056        -1.216343         0.944698
 C        -0.769833        -1.286685         0.223723
 C        -0.323006         0.010375        -0.366146
 O         0.420208         0.112246        -1.317462
 O        -0.685618         1.234190         0.215375
 C        -1.417978         1.193531         1.403564
 H        -3.269489        -0.910061         3.352440
 H        -2.517192         0.635929         3.506205
 H        -4.198936         0.571884         2.648047
 H        -4.114388        -0.455292         0.091564
 H        -2.519174         0.089914        -0.762766
 H        -2.446935        -2.102281         1.401228
 H         0.111659        -1.823459         0.699872
 H        -0.989939        -1.866897        -0.707585
 H        -0.825739         1.238823         2.334882
 H        -1.904673         2.181236         1.510746
