19
Iteration:  3224charge 0 multiplicity 1
 C        -3.170196         0.104801         2.897245
 C        -2.496444         0.047842         1.498342
 C        -3.165393        -0.570363         0.361521
 C        -1.951503        -1.219340         1.048194
 C        -0.583367        -1.197706         0.363355
 C        -0.202824         0.133501        -0.417803
 O         0.534914         0.125088        -1.371250
 O        -0.796260         1.310748        -0.005472
 C        -1.619355         1.259308         1.324358
 H        -3.228952         1.178259         3.374433
 H        -4.186443        -0.359463         2.837512
 H        -2.598446        -0.514485         3.622239
 H        -4.136467        -0.996160         0.505631
 H        -2.960552        -0.078310        -0.632272
 H        -2.143962        -2.044657         1.723196
 H         0.127189        -1.177714         1.187154
 H        -0.296913        -2.152375        -0.168734
 H        -0.911043         1.155961         2.141212
 H        -1.976061         2.360306         1.411386
