19
Iteration:  1714
 C        -3.170669         0.075782         2.860070
 C        -2.544786         0.151932         1.499567
 C        -2.931029        -0.463368         0.264879
 C        -1.704826        -1.152345         1.065694
 C        -0.358888        -1.167811         0.526328
 C        -0.204811         0.024467        -0.294750
 O         0.184118        -0.037214        -1.410404
 O        -0.795720         1.184139         0.069153
 C        -1.875641         1.430182         1.206504
 H        -3.676311         1.059253         3.095738
 H        -3.881258        -0.756629         2.905533
 H        -2.339031        -0.028350         3.534692
 H        -3.767570        -1.204491         0.238185
 H        -2.543074        -0.010074        -0.572661
 H        -2.036659        -2.080261         1.633697
 H         0.424558        -1.076258         1.314688
 H        -0.072136        -1.957556        -0.179483
 H        -1.316628         1.647163         2.172033
 H        -2.291563         2.303613         0.663762
