19
Iteration:   291
 C        -2.877481         0.241913         2.979814
 C        -2.533015         0.137777         1.465745
 C        -3.358168        -0.709853         0.530060
 C        -2.040740        -1.275248         1.011793
 C        -0.984861        -1.182883        -0.120278
 C        -0.156412         0.111050        -0.368563
 O         0.969114         0.103079        -0.816402
 O        -0.829199         1.312517        -0.104567
 C        -1.635350         1.264181         1.131680
 H        -3.464183         1.197438         3.214293
 H        -3.532612        -0.564584         3.173485
 H        -2.055810         0.172253         3.647121
 H        -4.392505        -0.955692         0.936087
 H        -3.479755        -0.609104        -0.554289
 H        -2.051568        -2.073038         1.725647
 H        -0.298595        -1.965976         0.015823
 H        -1.589298        -1.375660        -1.060366
 H        -0.892386         1.310005         1.937855
 H        -2.194288         2.212688         1.033939
