19
Iteration:  4587
 C        -3.137451         0.351746         2.935356
 C        -2.538847         0.017500         1.627198
 C        -3.264588        -0.481539         0.328499
 C        -2.015858        -1.190538         0.886715
 C        -0.609528        -1.327433         0.181457
 C        -0.168592         0.075812        -0.391230
 O         0.504603         0.215886        -1.380012
 O        -0.696325         1.149552         0.152529
 C        -1.461162         1.163148         1.409696
 H        -4.049725         0.961737         2.792743
 H        -3.566483        -0.579427         3.324761
 H        -2.463331         0.817733         3.676733
 H        -4.297752        -0.830565         0.320149
 H        -3.336329         0.282403        -0.493334
 H        -2.334115        -2.260572         1.249588
 H         0.140361        -1.656454         0.921839
 H        -0.530539        -1.960236        -0.714096
 H        -0.789219         1.063615         2.210484
 H        -2.106950         2.046977         1.506033
