19
Iteration:  2517charge 0 multiplicity 1
 C        -3.388508         0.155814         2.890254
 C        -2.445051         0.082677         1.619999
 C        -2.917120        -0.491960         0.275591
 C        -1.801276        -1.194630         1.064961
 C        -0.235059        -1.129673         0.603084
 C        -0.280638        -0.033521        -0.417593
 O         0.179591         0.098222        -1.543637
 O        -0.820768         1.181725         0.046020
 C        -1.590532         1.304333         1.272175
 H        -4.126195         0.898605         2.763465
 H        -4.139890        -0.644226         2.954492
 H        -3.082586         0.308908         3.958981
 H        -3.926932        -0.975158         0.154729
 H        -2.807148         0.211137        -0.642876
 H        -2.096537        -2.256083         1.253567
 H         0.440358        -0.768130         1.477862
 H         0.164819        -2.114014         0.162681
 H        -0.866906         1.410578         2.052862
 H        -2.167671         2.165579         1.005440
