19
Iteration:  2574charge 0 multiplicity 1
 C        -3.237197         0.049454         2.772995
 C        -2.533682         0.195338         1.398069
 C        -2.981569        -0.759404         0.253771
 C        -1.943276        -1.211298         1.134497
 C        -0.511074        -1.137217         0.644518
 C        -0.295768         0.139185        -0.349367
 O         0.183913         0.057362        -1.471295
 O        -0.732822         1.388965        -0.006146
 C        -1.434087         1.321174         1.357139
 H        -3.919994         0.835737         2.935183
 H        -3.415625        -1.007410         2.865580
 H        -2.372894         0.327620         3.409131
 H        -3.916263        -1.333515         0.353236
 H        -2.524213        -0.552221        -0.828116
 H        -2.041753        -1.927806         1.910848
 H         0.135877        -1.097473         1.610837
 H        -0.179187        -2.019426         0.086307
 H        -0.741970         1.178690         2.185684
 H        -1.778990         2.333654         1.446326
