19
Iteration:  2790
 C        -3.230370         0.161946         2.808911
 C        -2.471943         0.040348         1.519123
 C        -3.277216        -0.867659         0.603292
 C        -1.834622        -1.265040         1.178100
 C        -0.640006        -1.117603         0.208428
 C        -0.297788         0.163132        -0.522012
 O         0.755181         0.216340        -1.102448
 O        -0.904822         1.349603        -0.166861
 C        -1.599289         1.308597         1.162900
 H        -3.694069         1.184797         2.829874
 H        -3.929516        -0.618154         3.210153
 H        -2.437215         0.178850         3.631966
 H        -4.064182        -1.196939         1.406390
 H        -3.451889        -0.695479        -0.438674
 H        -1.531685        -2.032296         1.858239
 H         0.269200        -1.356476         0.636923
 H        -0.668712        -1.885885        -0.613083
 H        -0.699692         1.043160         1.833147
 H        -1.944803         2.285143         1.329667
