19
Iteration:  4205
 C        -3.228394         0.191433         2.952857
 C        -2.454398         0.090464         1.489389
 C        -3.337816        -0.381005         0.359394
 C        -2.096759        -1.167222         0.817456
 C        -0.707169        -1.194753         0.175785
 C        -0.170351         0.038675        -0.426306
 O         0.583971         0.164498        -1.347474
 O        -0.659726         1.186754         0.212764
 C        -1.376611         1.111635         1.447516
 H        -3.323566        -0.710319         3.583892
 H        -2.798090         0.991051         3.563512
 H        -4.275675         0.608023         2.800946
 H        -4.267003        -0.945216         0.591764
 H        -3.222622         0.032016        -0.714853
 H        -2.187591        -2.161229         1.284017
 H        -0.013648        -1.640225         0.981020
 H        -0.761431        -2.015889        -0.591898
 H        -0.633395         0.796725         2.195219
 H        -1.600893         2.195857         1.554289
