19
Iteration:  1777charge 0 multiplicity 1
 C        -3.354039         0.333878         2.786128
 C        -2.461682         0.088921         1.502312
 C        -3.129606        -0.783205         0.402077
 C        -1.838492        -1.217923         1.149242
 C        -0.395637        -1.095549         0.434844
 C        -0.198272         0.180680        -0.432950
 O         0.376017         0.096920        -1.513731
 O        -0.848535         1.290507         0.020975
 C        -1.496322         1.179598         1.403975
 H        -4.240747         0.935273         2.533596
 H        -3.899726        -0.631438         2.879444
 H        -3.013019         0.745611         3.765916
 H        -3.878035        -1.564434         0.667988
 H        -3.101449        -0.798007        -0.641057
 H        -2.008991        -2.064913         1.809734
 H         0.420066        -1.077736         1.310696
 H        -0.310488        -1.993465        -0.135560
 H        -0.721091         0.900347         2.095660
 H        -1.960120         2.159024         1.526491
