19
Iteration:  4056charge 0 multiplicity 1
 C        -3.343450         0.165135         2.841954
 C        -2.439222         0.116635         1.614282
 C        -3.043889        -0.273668         0.282861
 C        -2.008648        -1.204109         0.964373
 C        -0.616198        -1.287565         0.263669
 C        -0.176045         0.058163        -0.389147
 O         0.377390         0.070290        -1.463785
 O        -0.732792         1.195427         0.136003
 C        -1.384675         1.158215         1.511831
 H        -4.438429         0.042946         2.679067
 H        -3.247587        -0.806631         3.481182
 H        -3.290592         1.065096         3.499408
 H        -4.105959        -0.536812         0.325712
 H        -2.681780         0.443116        -0.481748
 H        -2.375031        -2.174305         1.429366
 H         0.170015        -1.673315         0.960883
 H        -0.610202        -1.870993        -0.643837
 H        -0.565551         1.313697         2.275844
 H        -1.782142         2.186429         1.524915
