19
Iteration:  4199
 C        -3.230259         0.200646         2.971508
 C        -2.477978         0.137716         1.541426
 C        -3.274203        -0.418348         0.294658
 C        -2.067299        -1.196176         0.825135
 C        -0.724980        -1.242247         0.144192
 C        -0.168534         0.024631        -0.403475
 O         0.565993         0.139562        -1.367312
 O        -0.685848         1.202447         0.207785
 C        -1.392494         1.165117         1.489095
 H        -3.219149        -0.742049         3.519542
 H        -2.652005         0.927644         3.596131
 H        -4.158201         0.513025         2.526416
 H        -4.245187        -0.836003         0.466946
 H        -3.156139         0.093386        -0.600100
 H        -2.493809        -2.119406         1.289923
 H        -0.010630        -1.553243         0.858622
 H        -0.624806        -1.934315        -0.671923
 H        -0.729911         0.937032         2.373604
 H        -1.520099         2.224599         1.729187
