19
Iteration:   800charge 0 multiplicity 1
 C        -2.822970         0.462210         2.921592
 C        -2.547814         0.116084         1.474387
 C        -3.347309        -1.121062         0.922898
 C        -1.847159        -1.257415         0.967739
 C        -1.180187        -0.994558        -0.409336
 C        -0.080489         0.171488        -0.303009
 O         0.964959         0.189304        -0.865907
 O        -0.486298         1.242838         0.462988
 C        -2.071823         1.151401         0.562518
 H        -3.390587         1.494344         3.114539
 H        -3.567544        -0.262375         3.372619
 H        -1.877998         0.712872         3.556347
 H        -3.992674        -1.639597         1.677456
 H        -3.828350        -1.034393        -0.016342
 H        -1.406267        -1.955715         1.571705
 H        -0.643775        -1.814124        -0.976419
 H        -1.975641        -0.797825        -1.093609
 H        -2.496712         2.108359         0.964274
 H        -2.433963         0.974673        -0.444028
