19
Iteration:  1148charge 0 multiplicity 1
 C        -3.221815         0.358767         2.918194
 C        -2.548637         0.197727         1.483781
 C        -3.235689        -1.005901         0.649207
 C        -1.787673        -1.156530         1.168394
 C        -0.771021        -1.216837         0.052143
 C        -0.214225         0.058959        -0.428421
 O         0.611259         0.260690        -1.317587
 O        -0.426661         1.142567         0.335140
 C        -1.816402         1.403814         0.857353
 H        -3.814410         1.298498         3.167231
 H        -3.923198        -0.484052         2.989496
 H        -2.477826         0.245284         3.712694
 H        -4.000468        -1.599292         1.260657
 H        -3.425415        -0.875704        -0.427996
 H        -1.769943        -2.045717         1.846777
 H         0.081846        -1.794345         0.594025
 H        -1.234111        -1.810354        -0.795876
 H        -1.547704         2.094858         1.699486
 H        -2.436603         1.882723         0.160093
