19
Iteration:  4868charge 0 multiplicity 1
 C        -3.357523         0.092440         2.868204
 C        -2.406724        -0.006358         1.651697
 C        -2.969354        -0.172785         0.319633
 C        -2.020106        -1.205978         0.960392
 C        -0.541088        -1.247926         0.427664
 C        -0.250892         0.078405        -0.429174
 O         0.276785         0.051696        -1.511959
 O        -0.703575         1.185900         0.140788
 C        -1.387257         1.194909         1.396391
 H        -3.912603         1.116649         2.680759
 H        -4.145463        -0.662514         2.570632
 H        -3.030475        -0.041511         3.953987
 H        -4.072698        -0.387750         0.293991
 H        -2.604028         0.269341        -0.663819
 H        -2.455977        -2.155227         1.439411
 H         0.241588        -1.256385         1.155975
 H        -0.229231        -1.912637        -0.361417
 H        -0.574861         1.348812         2.076560
 H        -1.953906         2.118009         1.342450
