19
Iteration:  4531charge 0 multiplicity 1
 C        -3.279162         0.001922         2.800655
 C        -2.484429         0.156103         1.565213
 C        -3.080172        -0.367611         0.297895
 C        -1.950375        -1.151406         1.026954
 C        -0.662224        -1.177607         0.321175
 C        -0.262224         0.078939        -0.391472
 O         0.352958        -0.013693        -1.428743
 O        -0.713173         1.320984         0.118524
 C        -1.337146         1.220188         1.441889
 H        -4.004711         0.797577         2.906362
 H        -3.851006        -0.900973         2.877220
 H        -2.762750         0.104642         3.723742
 H        -4.108311        -0.584169         0.566132
 H        -2.745903        -0.112743        -0.726560
 H        -2.351970        -2.096099         1.439979
 H         0.113072        -1.469017         1.060773
 H        -0.574183        -1.910666        -0.502253
 H        -0.533240         0.913996         2.048973
 H        -1.512260         2.256441         1.705479
