19
Iteration:  3642charge 0 multiplicity 1
 C        -3.095377         0.174349         2.951561
 C        -2.497417         0.112042         1.472729
 C        -3.166284        -0.251190         0.255991
 C        -2.166593        -1.203251         0.813029
 C        -0.755380        -1.256186         0.326098
 C        -0.228300        -0.009861        -0.428057
 O         0.402539         0.102627        -1.435524
 O        -0.534971         1.159776         0.274821
 C        -1.415345         1.189910         1.432441
 H        -3.609310        -0.765505         3.084830
 H        -2.368757         0.426533         3.781016
 H        -3.894758         0.910550         3.141949
 H        -4.198129        -0.777946         0.299814
 H        -2.950584         0.194403        -0.683014
 H        -2.520859        -2.075162         1.337549
 H        -0.008220        -1.379466         1.155477
 H        -0.468758        -2.097101        -0.272771
 H        -0.808070         1.076420         2.314203
 H        -1.914524         2.254949         1.409695
