19
Iteration:  4078
 C        -3.152256         0.220220         2.770314
 C        -2.366630         0.085217         1.530952
 C        -3.016669        -0.314105         0.186487
 C        -2.049043        -1.236314         0.859350
 C        -0.628281        -1.298040         0.332607
 C        -0.339159        -0.002399        -0.316853
 O         0.284262         0.102059        -1.338905
 O        -0.782851         1.281273         0.236703
 C        -1.347486         1.151095         1.462946
 H        -4.238753         0.185847         2.515009
 H        -3.051922        -0.663115         3.517385
 H        -2.977308         1.262637         3.187347
 H        -4.013704        -0.693853         0.181237
 H        -2.668327         0.121966        -0.788422
 H        -2.247965        -2.232837         1.370582
 H         0.046946        -1.637318         1.142734
 H        -0.590970        -2.005845        -0.484460
 H        -0.467010         1.173916         2.208744
 H        -1.787202         2.125810         1.765986
