19
Iteration:  2947
 C        -3.372265         0.311029         2.677693
 C        -2.351534         0.069149         1.563610
 C        -2.844858        -0.734726         0.267150
 C        -1.677364        -1.323075         1.178380
 C        -0.350606        -1.274696         0.516583
 C        -0.366409         0.122012        -0.368626
 O         0.232986         0.159211        -1.403834
 O        -1.037906         1.301162         0.004231
 C        -1.562816         1.351303         1.396996
 H        -3.439357         1.351113         2.848683
 H        -4.281994        -0.251540         2.490347
 H        -2.843580        -0.068035         3.619731
 H        -3.721204        -1.468045         0.193594
 H        -2.690584        -0.310150        -0.664327
 H        -2.031107        -2.360428         1.536708
 H         0.553784        -1.186932         1.080321
 H        -0.229968        -2.058208        -0.169163
 H        -0.692474         1.486100         2.105915
 H        -2.209943         2.289462         1.457377
