19
Iteration:   177
 C        -3.197661         0.025809         2.881364
 C        -2.513232         0.146952         1.470690
 C        -3.268197        -0.411775         0.326587
 C        -2.117596        -1.146456         0.925334
 C        -0.758267        -1.149396         0.357621
 C        -0.209899         0.094892        -0.433605
 O         0.626329         0.047604        -1.287033
 O        -0.671748         1.272334         0.064268
 C        -1.378000         1.169341         1.351986
 H        -3.298790        -0.946803         3.235815
 H        -2.385570         0.501785         3.483471
 H        -4.134107         0.602068         2.998350
 H        -4.186979        -0.805056         0.800295
 H        -3.341283        -0.093237        -0.673587
 H        -2.344629        -2.100799         1.630198
 H         0.028788        -1.217507         1.195888
 H        -0.635327        -1.988453        -0.302214
 H        -0.596201         1.047176         2.105199
 H        -1.821090         2.170363         1.410956
