19
Iteration:  1168
 C        -3.038331         0.263528         2.813271
 C        -2.655275         0.187402         1.418798
 C        -3.217846        -0.947006         0.540854
 C        -1.894305        -1.189439         1.213026
 C        -0.717769        -1.271360         0.166319
 C        -0.198622         0.099435        -0.423781
 O         0.605136         0.183844        -1.365662
 O        -0.539685         1.228569         0.345681
 C        -1.824852         1.420525         0.971558
 H        -3.414630         1.369951         2.916171
 H        -3.880849        -0.382698         3.210082
 H        -2.197344         0.172348         3.566824
 H        -4.171570        -1.355361         0.975357
 H        -3.170425        -1.085992        -0.500619
 H        -1.674979        -1.427717         2.264785
 H         0.117340        -1.776431         0.663533
 H        -1.045907        -1.931472        -0.609565
 H        -1.477284         1.947736         1.935639
 H        -2.318413         2.152705         0.387380
