19
Iteration:  2609charge 0 multiplicity 1
 C        -3.396203         0.297473         2.760194
 C        -2.460036         0.061282         1.605661
 C        -2.996085        -0.678414         0.458576
 C        -1.736019        -1.278166         1.032165
 C        -0.403188        -1.187038         0.422973
 C        -0.301165         0.096106        -0.444683
 O         0.345252         0.141784        -1.473587
 O        -0.804734         1.247913         0.045331
 C        -1.588687         1.257906         1.376917
 H        -3.900733         1.266260         2.633838
 H        -4.328157        -0.211126         2.941681
 H        -2.906462         0.271479         3.730685
 H        -3.887627        -1.357318         0.536337
 H        -3.028977        -0.319871        -0.522340
 H        -2.009620        -2.197287         1.551411
 H         0.448219        -1.027545         1.131678
 H        -0.134208        -1.992241        -0.216830
 H        -0.866545         1.374319         2.185334
 H        -2.219038         2.164729         1.220327
