19
Iteration:  3631charge 0 multiplicity 1
 C        -3.081795         0.111439         2.892955
 C        -2.522832         0.185281         1.500796
 C        -3.194688        -0.313923         0.160178
 C        -2.154044        -1.219787         0.949991
 C        -0.734881        -1.277629         0.320413
 C        -0.338823         0.017063        -0.434032
 O         0.442045         0.072460        -1.382321
 O        -0.542798         1.251451         0.251596
 C        -1.371106         1.182325         1.401844
 H        -3.627101        -0.787934         3.146132
 H        -2.138190        -0.046159         3.483392
 H        -3.639417         1.041772         3.096827
 H        -4.335160        -0.498878         0.368347
 H        -3.007456         0.264182        -0.710531
 H        -2.546933        -2.158986         1.330094
 H        -0.049712        -1.277454         1.210146
 H        -0.645597        -2.107174        -0.340885
 H        -0.750020         0.910406         2.241288
 H        -1.629740         2.298134         1.645173
