19
Iteration:  3605
 C        -3.103380         0.066320         2.850650
 C        -2.419097         0.230929         1.536545
 C        -3.146490        -0.310793         0.265405
 C        -2.119712        -1.198399         0.893862
 C        -0.800800        -1.191500         0.252020
 C        -0.190858         0.052394        -0.330514
 O         0.450838        -0.029013        -1.316591
 O        -0.749965         1.281068         0.142058
 C        -1.311756         1.208796         1.424817
 H        -4.164276        -0.330987         2.608505
 H        -2.712071        -0.674606         3.549277
 H        -3.226992         1.075269         3.354963
 H        -4.092846        -0.742966         0.480726
 H        -3.253697         0.054343        -0.844487
 H        -2.368778        -2.120553         1.544454
 H        -0.178613        -1.643207         0.968666
 H        -0.755946        -1.873853        -0.642366
 H        -0.565811         0.775550         2.196876
 H        -1.548626         2.198302         1.749528
