19
Iteration:  1429charge 0 multiplicity 1
 C        -3.243655         0.312493         2.871643
 C        -2.466523         0.012705         1.561033
 C        -3.092439        -0.690790         0.410925
 C        -1.842900        -1.270417         1.174914
 C        -0.554828        -1.183517         0.310254
 C        -0.246044         0.088049        -0.414085
 O         0.480358         0.054307        -1.348490
 O        -0.786717         1.338599         0.007050
 C        -1.630112         1.284345         1.167342
 H        -4.241756         0.721208         2.691613
 H        -3.335304        -0.613264         3.448126
 H        -2.644884         0.988242         3.477827
 H        -4.131694        -1.004390         0.716269
 H        -2.966999        -0.187577        -0.563005
 H        -1.978927        -2.150135         1.810751
 H         0.331525        -1.301603         1.097711
 H        -0.400412        -1.971393        -0.424802
 H        -1.096571         1.625726         2.033411
 H        -2.473635         2.007653         1.072599
