19
Iteration:   619charge 0 multiplicity 1
 C        -3.410980         0.385885         2.827582
 C        -2.454216         0.002033         1.638133
 C        -3.013506        -0.663074         0.421740
 C        -1.830711        -1.340297         1.098499
 C        -0.407897        -1.177121         0.493913
 C        -0.274382         0.084903        -0.490360
 O         0.480222         0.247098        -1.506598
 O        -0.908269         1.204189         0.004444
 C        -1.566806         1.166153         1.324744
 H        -3.246708         1.478229         2.962781
 H        -4.443380         0.133575         2.519153
 H        -3.168533        -0.073685         3.788528
 H        -4.112580        -1.060767         0.472287
 H        -2.856242        -0.218261        -0.604008
 H        -1.925734        -2.329319         1.686851
 H         0.319714        -1.019725         1.258068
 H        -0.065940        -1.981707        -0.245728
 H        -0.737617         1.264094         2.029057
 H        -2.176188         2.120036         1.277336
