19
Iteration:   134
 C        -3.410976         0.204934         2.738977
 C        -2.414028         0.086138         1.564731
 C        -2.965966        -0.316157         0.269966
 C        -1.898211        -1.180932         1.004308
 C        -0.560944        -1.229136         0.347350
 C        -0.269309        -0.010176        -0.420378
 O         0.274136         0.128728        -1.477485
 O        -0.698368         1.133060         0.226101
 C        -1.401088         1.203606         1.512917
 H        -3.855965        -0.626022         3.093647
 H        -2.921065         0.679429         3.615760
 H        -4.214674         0.867243         2.384379
 H        -3.978672        -0.617846         0.594865
 H        -2.775619         0.045109        -0.705391
 H        -2.228447        -2.298413         1.254874
 H         0.278249        -1.481038         1.029467
 H        -0.504454        -2.045756        -0.347175
 H        -0.755196         1.098973         2.329261
 H        -1.970453         2.126402         1.445787
