19
Iteration:   224charge 0 multiplicity 1
 C        -2.910667         0.178316         3.097247
 C        -2.474550         0.066757         1.604898
 C        -3.194432        -0.318726         0.304894
 C        -2.109181        -1.191303         0.897824
 C        -0.817614        -1.285541         0.130191
 C        -0.154194         0.031512        -0.309513
 O         0.829992         0.142775        -1.051291
 O        -0.891255         1.154593        -0.037918
 C        -1.699473         1.221195         1.171397
 H        -3.853569        -0.338621         3.106624
 H        -2.175178        -0.309407         3.746082
 H        -3.039364         1.211392         3.380272
 H        -4.181176        -0.762009         0.280582
 H        -2.989999         0.395457        -0.579699
 H        -2.534656        -2.230291         1.137208
 H        -0.069237        -1.968985         0.532895
 H        -1.112290        -1.696753        -0.869724
 H        -1.030229         1.572317         1.930026
 H        -2.463949         1.978308         0.898008
