19
Iteration:  1330
 C        -3.276413         0.286154         2.802628
 C        -2.497943         0.136243         1.456942
 C        -3.052899        -0.777695         0.448258
 C        -1.776887        -1.171882         1.207434
 C        -0.546979        -1.240902         0.377896
 C        -0.212258         0.076434        -0.380897
 O         0.286417         0.157022        -1.476180
 O        -0.603316         1.233750         0.207299
 C        -1.671487         1.318976         1.113631
 H        -3.498676         1.311472         2.947124
 H        -4.173436        -0.326077         2.833295
 H        -2.696600        -0.155353         3.587687
 H        -3.913468        -1.317410         0.768836
 H        -2.999519        -0.489101        -0.645420
 H        -1.953811        -2.009016         1.923892
 H         0.379626        -1.395807         1.054771
 H        -0.631851        -2.113491        -0.254634
 H        -1.409067         1.738177         2.067796
 H        -2.370698         2.017670         0.594278
