19
Iteration:  2035
 C        -3.093958         0.061943         2.907539
 C        -2.527113         0.111869         1.515380
 C        -3.106656        -0.669586         0.364155
 C        -1.888747        -1.150289         1.028035
 C        -0.458616        -1.205684         0.515471
 C        -0.160334         0.104326        -0.326451
 O         0.411463         0.108028        -1.379033
 O        -0.830548         1.267237        -0.023830
 C        -1.743224         1.364843         1.160466
 H        -3.800487         0.949351         2.857804
 H        -3.601437        -0.830633         3.372529
 H        -2.356734         0.501461         3.630880
 H        -3.899968        -1.375141         0.463788
 H        -3.120122        -0.023273        -0.566529
 H        -1.957978        -1.968683         1.679514
 H         0.286159        -1.409624         1.462183
 H        -0.300590        -1.980810        -0.332512
 H        -1.155382         1.641821         2.051596
 H        -2.408809         2.120784         0.732338
