19
Iteration:  2250charge 0 multiplicity 1
 C        -3.186236         0.145661         2.950969
 C        -2.557266         0.075240         1.499991
 C        -3.236538        -0.723612         0.386940
 C        -1.827722        -1.240029         1.065471
 C        -0.465374        -1.136799         0.373217
 C        -0.165088         0.104893        -0.382061
 O         0.519232         0.117819        -1.379504
 O        -0.792590         1.295628        -0.034711
 C        -1.709712         1.363221         1.219299
 H        -3.875395         1.029772         3.099230
 H        -3.667269        -0.773302         3.297092
 H        -2.424838         0.316768         3.715608
 H        -4.053929        -1.330209         0.884632
 H        -3.218514        -0.485881        -0.661505
 H        -1.994221        -2.148452         1.620041
 H         0.282696        -1.096942         1.297413
 H        -0.260845        -2.120945        -0.140027
 H        -1.101954         1.665471         2.164421
 H        -2.297031         2.306654         0.859854
