19
Iteration:  1669
 C        -3.299519         0.160269         2.773117
 C        -2.456858         0.108969         1.496211
 C        -3.106589        -0.700609         0.440647
 C        -1.924194        -1.323831         1.162787
 C        -0.427845        -1.059672         0.572954
 C        -0.261455         0.158282        -0.432401
 O         0.360459         0.069858        -1.482881
 O        -0.790771         1.323419        -0.027221
 C        -1.500528         1.249969         1.231643
 H        -3.997393         1.022659         2.820049
 H        -3.898224        -0.774230         2.735629
 H        -2.623913         0.150837         3.637965
 H        -4.088955        -1.124077         0.651238
 H        -2.779324        -0.346559        -0.541543
 H        -2.045620        -2.067822         1.949679
 H         0.217603        -0.802629         1.473340
 H        -0.013644        -1.947911         0.142826
 H        -0.687254         1.401034         2.004193
 H        -2.240207         2.114585         1.222841
