19
Iteration:  2427
 C        -3.246984         0.275574         2.996120
 C        -2.536293         0.045283         1.601247
 C        -3.140674        -0.681713         0.494709
 C        -1.774669        -1.159857         1.060789
 C        -0.457890        -1.246728         0.235230
 C        -0.094305         0.038350        -0.415094
 O         0.579020         0.225488        -1.412932
 O        -0.874782         1.164058         0.066159
 C        -1.804330         1.308505         1.157564
 H        -4.074105         0.943898         2.725807
 H        -3.676264        -0.641734         3.400461
 H        -2.507155         0.757157         3.587186
 H        -4.024535        -1.178893         0.672432
 H        -3.230559        -0.110508        -0.368685
 H        -1.863727        -2.064242         1.704164
 H         0.260659        -1.539048         1.077691
 H        -0.445000        -2.059451        -0.546530
 H        -1.262405         1.768488         1.926959
 H        -2.538291         1.975793         0.687289
