19
Iteration:   278
 C        -2.948477         0.164308         2.858525
 C        -2.489452         0.133203         1.433498
 C        -3.483642        -0.699548         0.641501
 C        -2.075868        -1.215435         0.967380
 C        -0.929845        -1.176956        -0.084392
 C        -0.193436         0.124645        -0.284943
 O         0.921517         0.089423        -0.826041
 O        -0.820479         1.285024        -0.140249
 C        -1.510729         1.306658         1.143882
 H        -3.754058         0.801838         3.066219
 H        -3.130295        -0.847974         3.235377
 H        -2.044516         0.523175         3.344916
 H        -4.349539        -1.064585         1.212623
 H        -3.543463        -0.341837        -0.422295
 H        -1.794030        -1.974087         1.812581
 H        -0.142673        -1.913690         0.063759
 H        -1.192828        -1.369040        -1.143318
 H        -0.763934         1.334425         1.934575
 H        -2.077286         2.258212         1.145959
