19
Iteration:  1732
 C        -3.158153         0.119237         2.831991
 C        -2.421234         0.101878         1.527555
 C        -2.988584        -0.688182         0.187930
 C        -1.881139        -1.183346         1.076175
 C        -0.398750        -1.189427         0.650446
 C        -0.244629         0.074693        -0.365610
 O         0.220772         0.024469        -1.475677
 O        -0.793621         1.325505         0.119701
 C        -1.668608         1.402898         1.195284
 H        -3.796072         0.963013         3.061942
 H        -3.825216        -0.767429         2.891556
 H        -2.369435         0.140990         3.628945
 H        -3.979576        -1.137951         0.275746
 H        -2.792978        -0.213333        -0.791516
 H        -2.199577        -1.901385         1.796066
 H         0.257504        -1.138954         1.641938
 H        -0.130312        -2.027181        -0.008264
 H        -1.121784         1.855180         2.003050
 H        -2.509519         2.011525         0.832660
