19
Iteration:  4255charge 0 multiplicity 1
 C        -3.112780         0.112335         2.939297
 C        -2.434635         0.128298         1.525732
 C        -3.201093        -0.375892         0.249599
 C        -2.092801        -1.159501         0.881030
 C        -0.747626        -1.228000         0.115683
 C        -0.253808         0.042847        -0.337373
 O         0.582103         0.063993        -1.219773
 O        -0.749129         1.236596         0.128343
 C        -1.433495         1.192317         1.432901
 H        -3.375762        -0.920707         3.253388
 H        -2.364318         0.532654         3.645391
 H        -3.965381         0.762349         3.131286
 H        -4.161980        -0.794095         0.476600
 H        -3.092211         0.313904        -0.533306
 H        -2.428909        -2.099695         1.257462
 H        -0.005358        -1.658004         0.715310
 H        -0.803758        -1.850086        -0.782440
 H        -0.672725         1.238573         2.244049
 H        -1.899872         2.153882         1.263057
