19
Iteration:  1380
 C        -3.155867         0.188705         2.840948
 C        -2.548948         0.133619         1.446553
 C        -3.163542        -0.707791         0.441891
 C        -1.855934        -1.205833         1.115952
 C        -0.438255        -1.182878         0.465127
 C        -0.188897         0.074988        -0.302140
 O         0.223293         0.086082        -1.469031
 O        -0.479488         1.237782         0.257986
 C        -1.782849         1.398485         0.976594
 H        -3.925491         1.000004         2.865746
 H        -3.553423        -0.792319         3.172158
 H        -2.336204         0.349561         3.599256
 H        -4.029041        -1.355125         0.501086
 H        -2.902730        -0.342016        -0.529783
 H        -2.125105        -1.955453         1.861865
 H         0.326739        -1.503328         1.090520
 H        -0.480972        -1.872513        -0.414359
 H        -1.590699         1.887637         1.951321
 H        -2.429371         2.049125         0.349950
