19
Iteration:  3708
 C        -3.280422         0.133541         2.790307
 C        -2.405122         0.214689         1.460151
 C        -3.141267        -0.340858         0.187631
 C        -2.056340        -1.192194         1.089575
 C        -0.805740        -1.258011         0.305333
 C        -0.327568         0.069636        -0.398340
 O         0.341199         0.103658        -1.456836
 O        -0.531444         1.219770         0.255956
 C        -1.249456         1.099667         1.514389
 H        -3.300451        -0.859115         3.204639
 H        -2.766714         0.892369         3.465778
 H        -4.264862         0.500817         2.453147
 H        -4.206648        -0.707034         0.374737
 H        -2.733971        -0.174641        -0.843236
 H        -2.394231        -2.003178         1.676204
 H         0.091770        -1.623149         0.816647
 H        -1.083762        -1.936967        -0.460778
 H        -0.506919         0.817561         2.239205
 H        -1.358947         2.241998         1.787590
