19
Iteration:   563charge 0 multiplicity 1
 C        -3.298698         0.106660         2.666732
 C        -2.411762         0.159402         1.436584
 C        -2.856858        -0.748205         0.175987
 C        -1.825529        -1.243394         1.245920
 C        -0.514463        -1.130594         0.624229
 C        -0.352317         0.048472        -0.348476
 O        -0.060653         0.041286        -1.576917
 O        -0.510238         1.362086         0.253969
 C        -1.537952         1.404006         1.308948
 H        -3.699019         1.061992         2.931553
 H        -4.215728        -0.479357         2.384284
 H        -2.767431        -0.424527         3.509153
 H        -3.859322        -1.216477         0.165865
 H        -2.359041        -0.400226        -0.813343
 H        -2.010913        -2.112242         1.838864
 H         0.239472        -0.995191         1.406972
 H        -0.132774        -2.058578         0.083246
 H        -1.092984         1.794766         2.228472
 H        -2.165604         2.260092         0.999479
