19
Iteration:  2206
 C        -3.209037         0.176314         2.901591
 C        -2.433642         0.064324         1.535698
 C        -2.986691        -0.642252         0.264980
 C        -1.870657        -1.310869         1.056907
 C        -0.434010        -1.213321         0.509171
 C        -0.316328         0.053231        -0.389708
 O         0.257038         0.164066        -1.433003
 O        -0.671523         1.288208         0.138075
 C        -1.720467         1.345791         1.165544
 H        -4.299466         0.406493         2.659454
 H        -3.157518        -0.739771         3.477750
 H        -2.769215         1.014280         3.428472
 H        -3.991809        -1.090420         0.360981
 H        -2.477441        -0.387280        -0.679445
 H        -2.074387        -1.993128         1.856072
 H         0.363693        -1.267282         1.393961
 H        -0.269169        -1.979394        -0.301738
 H        -1.333690         1.997262         2.059536
 H        -2.472507         2.160455         0.818118
