19
Iteration:   890charge 0 multiplicity 1
 C        -2.060264         0.187691         2.953014
 C        -2.447805         0.061204         1.441219
 C        -3.539266        -0.845279         0.910931
 C        -2.116741        -1.241788         0.741600
 C        -1.061437        -1.160120        -0.344879
 C        -0.151631         0.161986        -0.136745
 O         1.048884         0.201855        -0.186823
 O        -0.902280         1.363778        -0.083544
 C        -2.276075         1.209830         0.374499
 H        -3.014019         0.285584         3.566363
 H        -1.683294        -0.764836         3.437207
 H        -1.391539         1.149084         3.039791
 H        -4.056773        -1.351228         1.706926
 H        -4.114956        -0.350915         0.027390
 H        -1.850065        -1.959775         1.587863
 H        -0.285716        -1.885023        -0.441518
 H        -1.417040        -0.945971        -1.310182
 H        -2.423795         2.184871         0.764650
 H        -3.019301         1.147972        -0.406738
