19
Iteration:  4568
 C        -3.187293         0.280716         2.944506
 C        -2.405835         0.064304         1.504305
 C        -3.097182        -0.371766         0.338261
 C        -2.088281        -1.293077         0.875525
 C        -0.642163        -1.283352         0.254615
 C        -0.210929         0.069811        -0.379543
 O         0.441471         0.225888        -1.391719
 O        -0.757737         1.136883         0.194222
 C        -1.459359         1.152549         1.386626
 H        -3.951898         1.011561         2.552416
 H        -3.555259        -0.568210         3.615794
 H        -2.310745         0.892137         3.367198
 H        -4.158327        -0.658729         0.449506
 H        -2.998644        -0.093496        -0.675607
 H        -2.244159        -2.305789         1.195248
 H         0.067250        -1.536026         1.006534
 H        -0.595000        -2.086078        -0.467610
 H        -0.819053         1.049101         2.294956
 H        -2.042329         2.098084         1.616736
