19
Iteration:  3110charge 0 multiplicity 1
 C        -3.199796         0.141054         2.913803
 C        -2.445624         0.064293         1.564360
 C        -3.215925        -0.714558         0.518654
 C        -1.943841        -1.211006         1.020810
 C        -0.658501        -1.092068         0.318719
 C        -0.184661         0.124929        -0.442170
 O         0.697262         0.273853        -1.253282
 O        -0.923817         1.215626        -0.102312
 C        -1.520881         1.196988         1.188701
 H        -3.438608        -0.769821         3.443842
 H        -2.576183         0.793602         3.544663
 H        -4.211281         0.678373         2.880330
 H        -4.012344        -1.225932         0.952434
 H        -3.416406        -0.495218        -0.579750
 H        -2.094401        -2.187421         1.533798
 H         0.113641        -1.293052         1.165399
 H        -0.585127        -1.902272        -0.384549
 H        -0.725182         1.494667         1.954806
 H        -2.154603         2.003820         1.064045
