19
Iteration:  1128
 C        -3.199301         0.370419         2.856510
 C        -2.398033         0.057255         1.545734
 C        -3.275122        -0.815789         0.758132
 C        -1.813490        -1.246928         1.106467
 C        -0.759682        -1.214962        -0.005442
 C        -0.136984         0.141021        -0.384248
 O         0.634459         0.178913        -1.353326
 O        -0.519948         1.218013         0.427588
 C        -1.887123         1.269547         0.865093
 H        -3.756644         1.216711         2.534017
 H        -3.889279        -0.379535         3.169434
 H        -2.598069         0.727282         3.652686
 H        -4.187264        -1.323335         1.191853
 H        -3.304288        -0.438184        -0.295019
 H        -1.665985        -1.954046         1.952707
 H         0.201068        -1.786887         0.291272
 H        -1.159625        -1.602754        -1.016321
 H        -2.068238         2.177209         1.422708
 H        -2.505180         1.322506        -0.092574
