19
Iteration:   984
 C        -2.456726         0.379074         2.900927
 C        -2.508762         0.172358         1.399971
 C        -3.321232        -1.192305         1.027128
 C        -1.894647        -1.150142         0.882852
 C        -1.162983        -1.017563        -0.563977
 C        -0.190598         0.156267        -0.315947
 O         1.027466         0.065829        -0.367903
 O        -0.772012         1.262866         0.234240
 C        -2.198843         1.339648         0.474581
 H        -2.711111         1.416824         3.048166
 H        -3.210859        -0.165629         3.394383
 H        -1.482420         0.313978         3.240576
 H        -3.613285        -1.707516         1.892430
 H        -3.952030        -1.291486         0.112056
 H        -1.310067        -1.782911         1.484038
 H        -0.774173        -2.104437        -0.717120
 H        -1.936168        -0.760016        -1.380475
 H        -2.296470         2.449185         0.845969
 H        -2.737634         1.163386        -0.520233
