19
Iteration:  1421
 C        -3.178759         0.344385         2.861426
 C        -2.488006        -0.001376         1.587924
 C        -3.076478        -0.671297         0.410090
 C        -1.837308        -1.270942         1.129654
 C        -0.537938        -1.150450         0.353079
 C        -0.322271         0.077832        -0.440214
 O         0.479681         0.096522        -1.375694
 O        -0.739394         1.196256         0.101788
 C        -1.726606         1.320530         1.144143
 H        -4.168258         0.731258         2.503155
 H        -3.279341        -0.566163         3.475970
 H        -2.656622         1.040878         3.504932
 H        -4.132824        -1.080719         0.478705
 H        -2.966436        -0.065149        -0.475455
 H        -1.881700        -2.204745         1.660263
 H         0.357827        -1.042828         1.073528
 H        -0.407832        -2.010846        -0.309753
 H        -1.042345         1.666610         2.037020
 H        -2.418843         2.093795         0.768215
