19
Iteration:  2801charge 0 multiplicity 1
 C        -3.258398         0.262057         2.903194
 C        -2.527444         0.046850         1.519917
 C        -3.232239        -0.881133         0.638179
 C        -1.883956        -1.305454         1.138843
 C        -0.591081        -1.183806         0.207230
 C        -0.196558         0.196541        -0.461359
 O         0.761644         0.278960        -1.231449
 O        -0.916735         1.309152        -0.107159
 C        -1.575165         1.253973         1.130102
 H        -3.977318         1.109232         2.881501
 H        -3.842557        -0.641605         3.218329
 H        -2.408972         0.470881         3.616321
 H        -4.224310        -1.382136         0.953384
 H        -3.340886        -0.614709        -0.402329
 H        -1.941059        -2.111259         1.847022
 H         0.216888        -1.507721         0.785825
 H        -0.702159        -1.852000        -0.679637
 H        -0.798797         1.307860         1.978546
 H        -2.076366         2.189667         1.187117
