19
Iteration:  2812charge 0 multiplicity 1
 C        -3.157324         0.331502         2.928260
 C        -2.521936         0.071180         1.598695
 C        -3.210360        -0.857331         0.485513
 C        -1.891976        -1.268505         1.092257
 C        -0.630292        -1.202418         0.230891
 C        -0.090946         0.156770        -0.386109
 O         0.693710         0.313447        -1.282903
 O        -0.911293         1.228814        -0.107976
 C        -1.677994         1.227864         1.211350
 H        -4.013076         1.052064         2.753081
 H        -3.616632        -0.665325         3.176261
 H        -2.739862         0.678704         3.903981
 H        -4.072594        -1.511254         0.907231
 H        -3.167655        -0.601580        -0.571316
 H        -1.835810        -2.099158         1.777478
 H         0.216018        -1.520684         0.750127
 H        -0.656904        -1.956424        -0.597244
 H        -0.884858         1.439272         2.017329
 H        -2.333313         2.045898         1.088979
