19
Iteration:   429
 C        -3.277872         0.265326         2.924135
 C        -2.393484         0.010945         1.650915
 C        -3.129492        -0.530016         0.405196
 C        -1.927966        -1.232462         1.025908
 C        -0.612841        -1.300822         0.237251
 C        -0.169725         0.053001        -0.421599
 O         0.665566         0.209027        -1.343794
 O        -0.875048         1.201692        -0.001832
 C        -1.663950         1.257837         1.261888
 H        -3.698121        -0.487005         3.559502
 H        -2.503734         0.669057         3.703889
 H        -4.054222         1.084890         2.622198
 H        -4.154210        -0.923082         0.494352
 H        -2.985716        -0.070363        -0.533150
 H        -2.092701        -2.172903         1.608902
 H         0.167898        -1.395425         1.063876
 H        -0.546558        -2.144142        -0.429866
 H        -0.986967         1.599028         2.128355
 H        -2.444440         2.017916         1.189009
