19
Iteration:  1540charge 0 multiplicity 1
 C        -2.977256         0.119605         2.942015
 C        -2.564041         0.135947         1.430725
 C        -3.216128        -0.695125         0.331644
 C        -1.977715        -1.232054         1.077679
 C        -0.529200        -1.123353         0.517824
 C        -0.247137         0.051465        -0.404244
 O         0.559803         0.108345        -1.280501
 O        -0.840754         1.251245        -0.052759
 C        -1.700008         1.381095         1.138194
 H        -3.210708         1.162073         3.219789
 H        -3.689900        -0.606232         3.349373
 H        -2.068176        -0.120750         3.456688
 H        -4.162266        -1.196645         0.481495
 H        -3.015976        -0.577755        -0.770436
 H        -2.032894        -1.974379         1.862189
 H        -0.040509        -0.990773         1.528842
 H        -0.049611        -1.986238         0.044042
 H        -1.119444         1.779689         1.902711
 H        -2.344020         2.144869         0.730183
