19
Iteration:   612
 C        -3.427088         0.353277         2.762488
 C        -2.447566         0.039430         1.622667
 C        -3.017072        -0.728274         0.399725
 C        -1.822812        -1.290836         1.090262
 C        -0.395431        -1.160663         0.466694
 C        -0.232872         0.098521        -0.486386
 O         0.390587         0.210426        -1.519707
 O        -0.857278         1.225809         0.071387
 C        -1.567601         1.181077         1.362391
 H        -3.391586         1.496109         2.998540
 H        -4.474120         0.328016         2.416197
 H        -3.013456        -0.026870         3.709409
 H        -3.891478        -1.272359         0.708837
 H        -3.030797        -0.367896        -0.598590
 H        -1.980330        -2.279537         1.604322
 H         0.309696        -1.202388         1.330819
 H        -0.127170        -2.040777        -0.098021
 H        -0.692580         1.339768         2.037411
 H        -2.080600         2.171599         1.329771
