19
Iteration:  2330
 C        -3.103014         0.337163         2.964272
 C        -2.492368         0.003497         1.624890
 C        -3.190921        -0.627740         0.494728
 C        -1.947270        -1.293181         1.076216
 C        -0.468412        -1.200805         0.278257
 C        -0.162456         0.130039        -0.446404
 O         0.786799         0.361812        -1.208005
 O        -1.106942         1.079589        -0.118749
 C        -1.697223         1.139323         1.093070
 H        -3.288219         1.379483         3.033490
 H        -4.129975        -0.068994         3.037679
 H        -2.384396        -0.060558         3.679430
 H        -4.127937        -0.946886         0.705334
 H        -3.164283        -0.019236        -0.406809
 H        -2.166184        -2.248522         1.596238
 H         0.368754        -1.384072         1.013618
 H        -0.554083        -2.115344        -0.420647
 H        -0.998822         1.640382         1.908280
 H        -2.451522         1.937867         0.944995
