19
Iteration:  2404
 C        -3.097701         0.106152         3.034300
 C        -2.433631         0.112086         1.568177
 C        -3.113613        -0.639331         0.443810
 C        -1.897016        -1.223331         1.064138
 C        -0.540376        -1.217063         0.346292
 C        -0.254763         0.058126        -0.408862
 O         0.634080         0.161379        -1.243126
 O        -0.891946         1.248981        -0.041430
 C        -1.790404         1.421542         1.019724
 H        -4.130863         0.508704         2.986501
 H        -3.167882        -0.969546         3.180641
 H        -2.421912         0.544344         3.730807
 H        -3.966484        -1.186224         0.586403
 H        -3.090660        -0.243829        -0.556941
 H        -2.058395        -2.011920         1.798994
 H         0.256197        -1.543448         1.070083
 H        -0.601670        -1.986749        -0.445394
 H        -1.277120         2.015418         1.732504
 H        -2.641854         1.932384         0.546126
