19
Iteration:  4890charge 0 multiplicity 1
 C        -3.354540         0.114222         2.848913
 C        -2.453333         0.113254         1.612422
 C        -3.001493        -0.316769         0.318131
 C        -1.939478        -1.134396         0.931189
 C        -0.607864        -1.289405         0.335144
 C        -0.259400        -0.015709        -0.412509
 O         0.326925         0.044394        -1.498556
 O        -0.747444         1.204520         0.152751
 C        -1.335030         1.305866         1.505032
 H        -4.063224         0.985612         2.730514
 H        -3.920465        -0.802914         2.642185
 H        -2.792656         0.062272         3.831369
 H        -4.023488        -0.715511         0.208438
 H        -2.771638         0.387802        -0.553578
 H        -2.293190        -2.168828         1.236432
 H         0.204385        -1.264679         1.032415
 H        -0.450918        -2.151151        -0.290933
 H        -0.595866         1.213320         2.276199
 H        -1.913350         2.182663         1.645929
