19
Iteration:   869charge 0 multiplicity 1
 C        -2.141528         0.162857         2.868612
 C        -2.506381         0.055607         1.448668
 C        -3.559206        -0.898343         0.835894
 C        -2.035951        -1.208705         0.913073
 C        -1.062971        -1.051636        -0.217766
 C        -0.224804         0.254256        -0.240026
 O         0.998211         0.159597        -0.324872
 O        -0.784281         1.381130         0.007341
 C        -2.217215         1.206839         0.396369
 H        -2.918733         0.322413         3.654491
 H        -2.037613        -0.940632         3.174228
 H        -1.197225         0.790954         3.079938
 H        -4.198224        -1.409939         1.540212
 H        -3.948375        -0.623146        -0.255376
 H        -1.757576        -1.968831         1.774196
 H        -0.460226        -1.896497        -0.057478
 H        -1.464983        -1.257988        -1.180980
 H        -2.443652         2.151157         0.719056
 H        -2.768519         0.981798        -0.504634
