19
Iteration:   836
 C        -2.422844         0.470941         2.900275
 C        -2.535665         0.046742         1.454531
 C        -3.426857        -0.992496         0.874826
 C        -1.921595        -1.222071         0.812409
 C        -1.028214        -1.159026        -0.406694
 C        -0.130537         0.111799        -0.215799
 O         0.989878         0.214740        -0.579077
 O        -0.770967         1.234388         0.282412
 C        -2.245387         1.243084         0.586329
 H        -3.042778         1.403442         3.013076
 H        -2.826824        -0.399926         3.494210
 H        -1.341317         0.513021         3.262356
 H        -3.981695        -1.604104         1.585396
 H        -4.033517        -0.746506        -0.101210
 H        -1.532111        -2.001637         1.571155
 H        -0.311032        -1.923390        -0.579108
 H        -1.521914        -0.879318        -1.321580
 H        -2.260208         2.215364         0.977863
 H        -2.863155         1.287304        -0.302278
