19
Iteration:  4543
 C        -3.260723         0.118371         2.850533
 C        -2.371463         0.129570         1.533692
 C        -3.092204        -0.407084         0.307738
 C        -2.057221        -1.212724         0.957340
 C        -0.670158        -1.226739         0.323163
 C        -0.328090         0.108328        -0.433805
 O         0.384378         0.041838        -1.374574
 O        -0.727437         1.302070         0.124704
 C        -1.305959         1.187912         1.461073
 H        -4.103570         0.786515         2.680727
 H        -3.579808        -0.922199         2.916789
 H        -2.574380         0.335100         3.662618
 H        -3.982547        -0.923379         0.038731
 H        -2.838319         0.268232        -0.551049
 H        -2.202133        -2.070722         1.671449
 H         0.180231        -1.404980         0.982671
 H        -0.677736        -2.029190        -0.429623
 H        -0.615614         1.024163         2.239296
 H        -1.851213         2.103645         1.675955
