19
Iteration:  2331
 C        -3.095697         0.336509         2.965288
 C        -2.506798         0.009546         1.618390
 C        -3.191615        -0.628520         0.504055
 C        -1.953643        -1.297342         1.069466
 C        -0.470625        -1.200207         0.290595
 C        -0.157708         0.131261        -0.454543
 O         0.794496         0.362265        -1.211515
 O        -1.105190         1.081304        -0.115466
 C        -1.699349         1.146254         1.094754
 H        -3.265542         1.376906         3.020613
 H        -4.102495        -0.109980         3.029931
 H        -2.355181        -0.064551         3.676534
 H        -4.166567        -0.967942         0.686599
 H        -3.184716        -0.037812        -0.410121
 H        -2.147873        -2.245698         1.625042
 H         0.344342        -1.376662         0.980829
 H        -0.549689        -2.091405        -0.396883
 H        -0.999400         1.582548         1.946558
 H        -2.455444         1.904642         0.900625
