19
Iteration:  3828charge 0 multiplicity 1
 C        -3.215126         0.078184         2.923466
 C        -2.489692         0.120055         1.550671
 C        -3.242016        -0.379056         0.266138
 C        -2.102723        -1.185497         0.958899
 C        -0.767788        -1.199805         0.315549
 C        -0.246407         0.065276        -0.471500
 O         0.506647         0.005798        -1.414660
 O        -0.574444         1.266520         0.156189
 C        -1.319494         1.232921         1.403155
 H        -4.201389        -0.225042         2.635364
 H        -2.728404        -0.754526         3.501457
 H        -3.127614         0.967058         3.557091
 H        -4.239831        -0.569251         0.612213
 H        -3.113186         0.279012        -0.625099
 H        -2.462470        -2.023211         1.489205
 H        -0.134877        -1.312871         1.187243
 H        -0.629121        -2.036571        -0.327828
 H        -0.621775         1.291988         2.281579
 H        -1.811589         2.276533         1.348676
