19
Iteration:  1725charge 0 multiplicity 1
 C        -3.133275         0.086160         2.831922
 C        -2.480657         0.110671         1.475926
 C        -2.941123        -0.617549         0.226611
 C        -1.829133        -1.146292         1.084900
 C        -0.361466        -1.185313         0.604959
 C        -0.191424         0.026041        -0.305879
 O         0.191205         0.009332        -1.465317
 O        -0.783209         1.272656         0.078554
 C        -1.788026         1.444931         1.217180
 H        -3.728208         1.029760         2.986574
 H        -3.843534        -0.721586         3.037445
 H        -2.409815         0.029187         3.634679
 H        -3.998974        -0.927565         0.192122
 H        -2.762871        -0.087642        -0.661559
 H        -2.063185        -2.114022         1.616449
 H         0.345665        -1.231492         1.457796
 H        -0.286618        -2.147335         0.108456
 H        -1.246834         1.901622         2.096819
 H        -2.597430         2.168710         0.972527
