19
Iteration:   494charge 0 multiplicity 1
 C        -3.362027         0.210752         2.716646
 C        -2.452180         0.080912         1.461581
 C        -2.883155        -0.583413         0.206982
 C        -1.880666        -1.280930         1.126558
 C        -0.480800        -1.086418         0.597344
 C        -0.348420         0.092259        -0.393833
 O         0.121497         0.047999        -1.484176
 O        -0.726557         1.288302         0.118592
 C        -1.412775         1.228435         1.384810
 H        -4.412384         0.131508         2.545115
 H        -3.036724        -0.765608         3.204380
 H        -2.957662         1.110501         3.323360
 H        -3.895708        -0.977014         0.284965
 H        -2.562011        -0.246205        -0.748158
 H        -2.156572        -2.223873         1.621287
 H         0.270135        -0.854245         1.498743
 H        -0.087995        -1.989300         0.142810
 H        -0.601567         1.289156         2.188170
 H        -1.812993         2.242449         1.467838
