19
Iteration:  2701charge 0 multiplicity 1
 C        -2.983603         0.091239         2.963689
 C        -2.527422         0.029846         1.516235
 C        -3.352326        -0.646511         0.477014
 C        -1.988823        -1.221083         0.989025
 C        -0.503957        -1.102208         0.442028
 C        -0.168298         0.153847        -0.382735
 O         0.697087         0.092567        -1.204664
 O        -0.888175         1.347391        -0.139028
 C        -1.736760         1.271933         1.058187
 H        -3.955806         0.570589         3.053981
 H        -3.189040        -0.955403         3.266021
 H        -2.071269         0.331296         3.485699
 H        -4.215191        -1.218626         0.712594
 H        -3.425895        -0.108114        -0.511574
 H        -2.142035        -2.033040         1.694829
 H         0.132571        -1.087574         1.280773
 H        -0.232106        -2.011941        -0.148243
 H        -0.977983         1.527304         1.843954
 H        -2.490889         2.064804         0.939647
