19
Iteration:  4756
 C        -3.345639         0.137210         2.891985
 C        -2.388475         0.162874         1.693974
 C        -3.093756        -0.383016         0.290546
 C        -1.987245        -1.185019         1.007159
 C        -0.662851        -1.316298         0.189905
 C        -0.168739        -0.003049        -0.446233
 O         0.454431         0.117927        -1.454657
 O        -0.710132         1.201658         0.151155
 C        -1.429369         1.306646         1.462335
 H        -4.227593         0.883086         3.022599
 H        -3.807356        -0.902648         2.925895
 H        -2.816449         0.144078         3.921191
 H        -4.135120        -0.654958         0.335806
 H        -2.875025         0.098772        -0.654094
 H        -2.355609        -2.130505         1.348722
 H         0.049723        -1.837990         0.790030
 H        -0.931835        -2.030191        -0.610259
 H        -0.625421         1.488162         2.197956
 H        -2.023192         2.236713         1.389356
