19
Iteration:  1176
 C        -2.994649         0.291211         2.797467
 C        -2.570166         0.177966         1.368324
 C        -3.225455        -0.871789         0.527874
 C        -1.874010        -1.209688         1.160873
 C        -0.672919        -1.192874         0.234304
 C        -0.221903         0.106886        -0.364180
 O         0.541496         0.131027        -1.315520
 O        -0.571346         1.219608         0.290486
 C        -1.848880         1.353263         1.004726
 H        -3.422657         1.284492         2.977049
 H        -3.828199        -0.412444         3.015761
 H        -2.120312         0.188645         3.487163
 H        -4.088517        -1.283234         1.012034
 H        -3.207081        -0.889449        -0.552812
 H        -1.789703        -1.834248         2.069742
 H         0.104069        -1.655636         0.771524
 H        -0.931170        -1.747662        -0.646921
 H        -1.509684         1.836286         1.942853
 H        -2.584601         2.081993         0.463722
