19
Iteration:   191
 C        -2.966127         0.107710         2.838261
 C        -2.471569         0.182970         1.475088
 C        -3.338530        -0.401494         0.346668
 C        -2.091397        -1.197773         0.873331
 C        -0.707411        -1.256236         0.261350
 C        -0.269699         0.023881        -0.390102
 O         0.641740         0.075697        -1.146362
 O        -0.766988         1.248146         0.086852
 C        -1.497437         1.247108         1.308388
 H        -3.322330        -0.886548         2.960781
 H        -2.319765         0.361298         3.694346
 H        -3.874232         0.694033         2.981916
 H        -4.362111        -0.780476         0.414577
 H        -3.189424         0.168563        -0.635354
 H        -2.393673        -2.113976         1.514358
 H        -0.045323        -1.359685         1.128093
 H        -0.490340        -2.101814        -0.421804
 H        -0.811774         1.124805         2.128317
 H        -1.838822         2.277813         1.517643
