19
Iteration:   935
 C        -2.164918         0.493346         2.915877
 C        -2.425139         0.062923         1.353952
 C        -3.408427        -1.118273         0.935113
 C        -1.893121        -1.251885         0.768944
 C        -1.226662        -0.989239        -0.591442
 C        -0.219322         0.139683        -0.232644
 O         0.960417         0.021869        -0.084182
 O        -0.821997         1.353315         0.102924
 C        -2.284642         1.256807         0.469630
 H        -3.044819         1.043144         3.340941
 H        -2.091402        -0.426808         3.571374
 H        -1.213647         1.126775         2.888790
 H        -3.932257        -1.779370         1.678531
 H        -3.899539        -0.884270        -0.024362
 H        -1.290972        -1.995662         1.422434
 H        -0.652314        -1.819721        -0.889335
 H        -1.979766        -0.748533        -1.294910
 H        -2.579951         2.113352         0.975727
 H        -2.811178         1.284332        -0.470932
