19
Iteration:  1177
 C        -2.993598         0.296235         2.798215
 C        -2.555542         0.167477         1.360062
 C        -3.224286        -0.864564         0.526947
 C        -1.872173        -1.206647         1.154003
 C        -0.672996        -1.186949         0.241362
 C        -0.220371         0.106360        -0.359433
 O         0.531939         0.125774        -1.306922
 O        -0.575579         1.219779         0.282276
 C        -1.851337         1.350670         1.005149
 H        -3.445120         1.311985         3.003568
 H        -3.828044        -0.435838         3.003212
 H        -2.102825         0.181039         3.484431
 H        -4.102450        -1.292669         1.012308
 H        -3.219047        -0.846073        -0.531478
 H        -1.811054        -1.894610         2.029780
 H         0.119659        -1.636905         0.763495
 H        -0.891723        -1.731063        -0.636468
 H        -1.515786         1.846908         1.965472
 H        -2.573223         2.055964         0.476394
