19
Iteration:  2236
 C        -3.133001         0.209102         2.909504
 C        -2.453240         0.023344         1.557964
 C        -3.164236        -0.667914         0.410022
 C        -1.869658        -1.195629         0.926879
 C        -0.407265        -1.130837         0.466726
 C        -0.222656         0.099511        -0.390668
 O         0.459309         0.085103        -1.428395
 O        -0.775043         1.244879         0.114374
 C        -1.813457         1.295983         1.181002
 H        -4.048646         0.762557         2.653674
 H        -3.513403        -0.730950         3.291829
 H        -2.460568         0.770568         3.578441
 H        -4.063515        -1.252418         0.530840
 H        -3.202633        -0.112912        -0.600499
 H        -1.953192        -2.007192         1.662265
 H         0.298367        -1.168826         1.328377
 H        -0.135316        -1.865039        -0.241368
 H        -1.251368         1.728693         2.022748
 H        -2.614342         2.027253         0.944383
