19
Iteration:  3706charge 0 multiplicity 1
 C        -3.294114         0.126642         2.804353
 C        -2.392410         0.210261         1.468605
 C        -3.121440        -0.342482         0.176746
 C        -2.042679        -1.206542         1.083660
 C        -0.819750        -1.245283         0.296191
 C        -0.311719         0.053387        -0.407314
 O         0.340783         0.101901        -1.460456
 O        -0.538086         1.200253         0.265459
 C        -1.249636         1.138643         1.505072
 H        -3.338398        -0.865696         3.307498
 H        -2.787233         0.859377         3.473660
 H        -4.254488         0.487264         2.425990
 H        -4.258000        -0.633384         0.357301
 H        -2.751820        -0.123282        -0.804505
 H        -2.460462        -1.996888         1.714905
 H         0.075005        -1.520324         0.781135
 H        -1.134177        -1.921993        -0.451937
 H        -0.485524         0.878578         2.266841
 H        -1.424724         2.225518         1.808674
