19
Iteration:  3750charge 0 multiplicity 1
 C        -3.251829         0.352629         2.842772
 C        -2.460406        -0.029809         1.621431
 C        -3.167174        -0.287718         0.273278
 C        -2.083640        -1.201252         0.811881
 C        -0.598494        -1.223176         0.345497
 C        -0.250958         0.016170        -0.431468
 O         0.355928         0.109034        -1.498333
 O        -0.598025         1.167193         0.240049
 C        -1.310562         1.064481         1.520933
 H        -3.859132        -0.442654         3.285964
 H        -2.564126         0.609738         3.698173
 H        -4.011281         1.101222         2.563068
 H        -4.215395        -0.702036         0.395683
 H        -3.069609         0.215097        -0.728878
 H        -2.587288        -2.110407         1.027273
 H         0.001076        -1.310602         1.212236
 H        -0.471968        -1.967258        -0.388915
 H        -0.650487         0.994380         2.411077
 H        -1.975676         1.929206         1.729107
