19
Iteration:  1264charge 0 multiplicity 1
 C        -3.208293         0.114729         2.793631
 C        -2.448777         0.194690         1.476543
 C        -3.104045        -0.571222         0.396195
 C        -1.903223        -1.242682         1.144482
 C        -0.543340        -1.134945         0.529234
 C        -0.259101         0.113840        -0.347177
 O         0.530398         0.075153        -1.287311
 O        -1.139644         1.245497        -0.182569
 C        -1.321477         1.224430         1.221568
 H        -4.092210         0.704437         2.767659
 H        -3.411750        -0.873696         3.206473
 H        -2.592999         0.535765         3.570977
 H        -4.130664        -0.930104         0.603584
 H        -2.889181        -0.264024        -0.591688
 H        -2.306899        -2.052912         1.773239
 H         0.108192        -1.107557         1.412031
 H        -0.121849        -1.859714        -0.128170
 H        -0.358499         1.131537         1.744047
 H        -1.769741         2.238251         1.462849
