19
Iteration:  4809
 C        -3.151794         0.183541         2.805838
 C        -2.530128         0.146624         1.498690
 C        -3.116412        -0.523838         0.200192
 C        -2.061910        -1.288748         0.948685
 C        -0.714996        -1.203414         0.409172
 C        -0.216609         0.128982        -0.401129
 O         0.275819         0.126123        -1.455436
 O        -0.520039         1.265726         0.234065
 C        -1.398463         1.184443         1.429322
 H        -3.535861         1.162044         2.855695
 H        -3.898542        -0.553952         3.117239
 H        -2.333645         0.142304         3.556426
 H        -4.096070        -0.909419         0.312088
 H        -2.952421        -0.162931        -0.786978
 H        -2.442520        -1.999691         1.607625
 H        -0.063637        -1.487936         1.254757
 H        -0.575909        -2.037637        -0.311479
 H        -0.769948         0.945521         2.375819
 H        -1.900295         2.142545         1.752432
