19
Iteration:  1800charge 0 multiplicity 1
 C        -3.453076         0.321684         2.733933
 C        -2.383298         0.060857         1.590229
 C        -2.956779        -0.662585         0.434191
 C        -1.763597        -1.279224         1.189510
 C        -0.449777        -1.240734         0.381010
 C        -0.293422         0.101789        -0.427681
 O         0.412363         0.259693        -1.428456
 O        -0.987356         1.143085         0.015365
 C        -1.465219         1.246667         1.284968
 H        -4.257842         1.075547         2.577359
 H        -4.005280        -0.466299         3.283635
 H        -2.780958         0.861578         3.427817
 H        -3.906722        -1.200068         0.400804
 H        -2.836030        -0.083418        -0.439240
 H        -1.918775        -2.132719         1.895616
 H         0.492636        -1.318079         1.149102
 H        -0.534699        -2.124108        -0.233490
 H        -0.696121         1.176724         2.039784
 H        -1.940645         2.221195         1.155562
