19
Iteration:   143charge 0 multiplicity 1
 C        -3.473770         0.166747         2.818453
 C        -2.480850         0.136477         1.605528
 C        -3.065095        -0.341376         0.337416
 C        -1.908677        -1.191880         0.954445
 C        -0.538105        -1.266323         0.322635
 C        -0.244086         0.036889        -0.438285
 O         0.374989         0.072538        -1.496430
 O        -0.647810         1.231637         0.174999
 C        -1.400643         1.163845         1.465144
 H        -3.803365        -0.771298         3.231765
 H        -2.976650         0.704589         3.620770
 H        -4.351931         0.786334         2.603997
 H        -4.021592        -0.857483         0.356223
 H        -2.993718         0.268626        -0.536205
 H        -2.289410        -2.143587         1.428346
 H         0.299457        -1.415894         1.084793
 H        -0.492500        -2.114698        -0.356598
 H        -0.649189         1.072970         2.263726
 H        -1.778368         2.187938         1.544976
