19
Iteration:  1107charge 0 multiplicity 1
 C        -2.991994         0.474150         2.939980
 C        -2.457052         0.007130         1.549128
 C        -3.243906        -0.860308         0.626905
 C        -1.930071        -1.320166         1.050168
 C        -0.809951        -1.248278         0.043828
 C        -0.178757         0.147323        -0.324130
 O         0.639957         0.239895        -1.216746
 O        -0.499268         1.263046         0.385336
 C        -1.940231         1.244969         0.754349
 H        -3.919462         0.940814         2.735048
 H        -3.147896        -0.368082         3.585501
 H        -2.322195         1.169079         3.429705
 H        -4.029456        -1.443497         1.177582
 H        -3.433446        -0.564416        -0.428929
 H        -1.924532        -2.240257         1.681223
 H         0.154405        -1.788813         0.206043
 H        -1.194284        -1.596370        -0.974767
 H        -2.082499         2.105713         1.385583
 H        -2.469851         1.441178        -0.267880
