19
Iteration:  4743charge 0 multiplicity 1
 C        -3.298445         0.053438         2.931331
 C        -2.488740         0.159339         1.560452
 C        -3.078733        -0.390469         0.347016
 C        -2.050040        -1.194061         1.011763
 C        -0.733190        -1.287631         0.184499
 C        -0.287829         0.058725        -0.372451
 O         0.498712         0.111707        -1.382690
 O        -0.683694         1.218799         0.064011
 C        -1.362416         1.275220         1.422763
 H        -4.014591         0.907171         2.862831
 H        -3.838993        -0.914771         2.972309
 H        -2.574096         0.215142         3.772720
 H        -4.074185        -0.687929         0.335877
 H        -2.639881         0.066710        -0.523207
 H        -2.181896        -1.929149         1.764041
 H         0.147612        -1.543636         0.793595
 H        -0.713652        -1.940129        -0.691653
 H        -0.577291         1.112132         2.269815
 H        -1.742367         2.369324         1.402993
