19
Iteration:  3635charge 0 multiplicity 1
 C        -3.081780         0.140846         2.936909
 C        -2.518638         0.160506         1.473378
 C        -3.183884        -0.281490         0.182954
 C        -2.171783        -1.235240         0.914110
 C        -0.741922        -1.269837         0.330408
 C        -0.314580        -0.015370        -0.436234
 O         0.440313         0.091892        -1.413882
 O        -0.537205         1.228163         0.272235
 C        -1.399454         1.196573         1.399810
 H        -3.605683        -0.800240         3.116043
 H        -2.191835         0.088709         3.578930
 H        -3.781605         0.980637         3.054844
 H        -4.155349        -0.636627         0.454834
 H        -2.940183         0.310677        -0.731133
 H        -2.517520        -2.175915         1.325585
 H        -0.062138        -1.261223         1.235796
 H        -0.576560        -2.121076        -0.385828
 H        -0.805559         0.957208         2.321752
 H        -1.628875         2.223256         1.563011
