19
Iteration:   594
 C        -3.394896         0.275588         2.689462
 C        -2.484859         0.091984         1.438356
 C        -3.055306        -0.826232         0.377303
 C        -1.743040        -1.193063         1.137640
 C        -0.426399        -1.112954         0.441352
 C        -0.232200         0.096863        -0.344545
 O         0.158763         0.093189        -1.477939
 O        -0.710402         1.285731         0.159633
 C        -1.493087         1.276548         1.352253
 H        -3.452837         1.262570         2.998190
 H        -4.381694         0.016767         2.263081
 H        -2.989007        -0.255915         3.606776
 H        -3.983982        -1.342146         0.562191
 H        -2.986363        -0.534593        -0.697333
 H        -1.715139        -1.963750         1.825507
 H         0.449397        -1.120786         1.179753
 H        -0.220252        -1.845219        -0.361266
 H        -0.786441         1.198307         2.224554
 H        -1.918798         2.255520         1.275116
