19
Iteration:   475
 C        -3.296396         0.164158         2.737960
 C        -2.402147         0.143093         1.479330
 C        -3.005547        -0.649678         0.286842
 C        -1.936743        -1.203136         1.166038
 C        -0.515985        -1.175695         0.554567
 C        -0.307490         0.098166        -0.447957
 O         0.315246         0.129067        -1.447959
 O        -0.883366         1.310622         0.028837
 C        -1.332248         1.190677         1.394800
 H        -4.256461        -0.030697         2.330135
 H        -3.223639        -0.589325         3.573576
 H        -3.434503         1.244665         2.950752
 H        -4.078151        -0.962855         0.292534
 H        -2.700938        -0.404899        -0.779204
 H        -2.051082        -1.890459         1.932526
 H         0.130334        -1.119308         1.396976
 H        -0.307912        -2.095042         0.003743
 H        -0.516430         0.863813         2.068587
 H        -1.680725         2.180618         1.756818
