19
Iteration:  2709charge 0 multiplicity 1
 C        -2.961169         0.078084         2.995458
 C        -2.525988         0.050356         1.567653
 C        -3.341897        -0.607397         0.455995
 C        -1.973550        -1.237846         0.916951
 C        -0.490359        -1.153901         0.420128
 C        -0.201715         0.107431        -0.389692
 O         0.725644         0.143190        -1.207542
 O        -0.889272         1.273063        -0.152566
 C        -1.779228         1.292765         1.098498
 H        -3.814868         0.865948         3.151735
 H        -3.303855        -0.859410         3.435009
 H        -2.289285         0.601751         3.694548
 H        -4.224342        -1.090504         0.689430
 H        -3.454637        -0.207799        -0.554081
 H        -2.085488        -2.153170         1.552878
 H         0.097648        -1.045010         1.389614
 H         0.000958        -1.930059        -0.197937
 H        -1.276783         1.725805         1.954027
 H        -2.501367         2.114884         0.744584
