19
Iteration:  3702
 C        -3.311086         0.121827         2.820331
 C        -2.385890         0.178632         1.499782
 C        -3.086321        -0.356285         0.189109
 C        -2.038640        -1.210257         1.066164
 C        -0.840388        -1.220924         0.259850
 C        -0.278832         0.018550        -0.433320
 O         0.333673         0.095138        -1.458397
 O        -0.549940         1.166062         0.280581
 C        -1.240857         1.225602         1.494559
 H        -3.410079        -0.817887         3.439071
 H        -2.893808         0.800444         3.532254
 H        -4.282821         0.466005         2.458548
 H        -4.142982        -0.416856         0.266325
 H        -2.784095         0.012962        -0.799420
 H        -2.517177        -1.985606         1.731441
 H         0.139084        -1.426507         0.799441
 H        -1.109261        -1.983873        -0.553561
 H        -0.492161         0.956126         2.320171
 H        -1.618118         2.166097         1.780025
