19
Iteration:  4633charge 0 multiplicity 1
 C        -3.133326        -0.047226         2.814932
 C        -2.401725         0.084230         1.556903
 C        -3.224429        -0.410751         0.399805
 C        -1.983822        -1.161658         1.017471
 C        -0.801141        -1.261323         0.238674
 C        -0.271772         0.042260        -0.344710
 O         0.576482         0.071685        -1.278125
 O        -0.740846         1.329615         0.052926
 C        -1.398239         1.376930         1.290481
 H        -3.668058         0.901659         3.108670
 H        -3.988985        -0.767099         2.883982
 H        -2.505178        -0.201216         3.762722
 H        -4.278895        -0.728979         0.557227
 H        -3.166884        -0.153066        -0.642263
 H        -2.381718        -1.977680         1.634253
 H         0.066812        -1.689592         0.702404
 H        -0.990898        -1.888240        -0.630402
 H        -0.717781         1.264176         2.081756
 H        -1.917180         2.391980         1.349541
