19
Iteration:  1530charge 0 multiplicity 1
 C        -2.944803         0.222889         2.853270
 C        -2.514095         0.038329         1.497771
 C        -3.223191        -0.676970         0.350164
 C        -1.905105        -1.205927         0.977923
 C        -0.482605        -1.193199         0.530779
 C        -0.268007         0.061830        -0.360556
 O         0.562932         0.100792        -1.262104
 O        -0.934904         1.254149        -0.022083
 C        -1.718671         1.346949         1.122270
 H        -3.172751         1.255605         3.181024
 H        -3.816739        -0.346491         3.196591
 H        -2.090190        -0.082041         3.434098
 H        -4.141387        -1.196187         0.466115
 H        -3.171625        -0.053927        -0.575411
 H        -2.192249        -2.039787         1.609101
 H         0.232903        -0.941610         1.462076
 H        -0.167746        -2.192587         0.146737
 H        -1.102885         1.770267         1.896947
 H        -2.513099         2.054904         0.950028
