19
Iteration:   900
 C        -2.086568         0.300067         2.936098
 C        -2.380455         0.039268         1.419560
 C        -3.547335        -0.850607         0.950224
 C        -2.070974        -1.236027         0.695830
 C        -1.028679        -1.096905        -0.449756
 C        -0.188506         0.151036        -0.141331
 O         1.055564         0.203877        -0.135415
 O        -0.917957         1.254098        -0.062315
 C        -2.311213         1.231130         0.432833
 H        -3.073607         0.506051         3.454484
 H        -1.528921        -0.603556         3.317481
 H        -1.388199         1.148156         3.330051
 H        -4.112057        -1.493086         1.604904
 H        -4.296403        -0.432719         0.172587
 H        -1.754579        -2.071594         1.365864
 H        -0.595258        -2.087476        -0.423458
 H        -1.463395        -1.013419        -1.423872
 H        -2.411092         2.121629         1.019876
 H        -2.960712         1.185212        -0.453062
