19
Iteration:  4307charge 0 multiplicity 1
 C        -3.183098         0.032589         2.893656
 C        -2.431368         0.096851         1.596127
 C        -3.269950        -0.329830         0.395609
 C        -2.122020        -1.153415         0.853885
 C        -0.677262        -1.207547         0.200836
 C        -0.247834         0.030547        -0.407659
 O         0.624005         0.100558        -1.273060
 O        -0.686957         1.232509         0.096323
 C        -1.465015         1.231333         1.324368
 H        -4.266786        -0.258326         2.890586
 H        -2.719409        -0.612117         3.713875
 H        -3.144793         0.954194         3.507204
 H        -4.190289        -0.858864         0.528037
 H        -3.198260         0.217850        -0.468159
 H        -2.290432        -2.122230         1.336229
 H         0.019802        -1.485440         1.058777
 H        -0.591005        -1.953181        -0.578001
 H        -0.727732         1.157427         2.216460
 H        -1.879773         2.265481         1.224644
