19
Iteration:  3697
 C        -3.318517         0.129291         2.817546
 C        -2.396740         0.138905         1.551349
 C        -3.036579        -0.359579         0.228880
 C        -2.072700        -1.180542         1.040177
 C        -0.820662        -1.234868         0.199753
 C        -0.279458        -0.005853        -0.437087
 O         0.332322         0.085630        -1.461950
 O        -0.550963         1.153844         0.281223
 C        -1.240216         1.264853         1.503993
 H        -3.438544        -0.779087         3.388104
 H        -2.998353         0.862858         3.632160
 H        -4.353452         0.455087         2.584484
 H        -4.161401        -0.298537         0.229661
 H        -2.752008         0.100349        -0.735841
 H        -2.403715        -2.013328         1.617905
 H         0.073343        -1.492954         0.812599
 H        -0.862020        -1.983706        -0.570862
 H        -0.586914         1.045071         2.325685
 H        -1.794969         2.278860         1.639649
