19
Iteration:  1010
 C        -2.523657         0.454763         2.964650
 C        -2.503515         0.019780         1.511764
 C        -3.478073        -0.941401         0.879429
 C        -1.941905        -1.279030         0.944786
 C        -1.019808        -1.065449        -0.420457
 C        -0.099568         0.160683        -0.267893
 O         1.052223         0.204377        -0.602080
 O        -0.747050         1.255975         0.141584
 C        -2.209398         1.139105         0.582824
 H        -2.816585         1.536780         3.006844
 H        -3.307034        -0.151614         3.487067
 H        -1.486254         0.422041         3.458708
 H        -4.158677        -1.594109         1.541888
 H        -3.832784        -0.742293        -0.140318
 H        -1.473344        -2.073176         1.645743
 H        -0.520998        -1.982899        -0.590725
 H        -1.645563        -0.858650        -1.275205
 H        -2.189715         2.031844         1.131331
 H        -2.880422         1.223551        -0.319727
