19
Iteration:  2613charge 0 multiplicity 1
 C        -3.404613         0.327230         2.792695
 C        -2.448098         0.023023         1.639647
 C        -2.968443        -0.692736         0.477264
 C        -1.751945        -1.296364         0.996773
 C        -0.382233        -1.211245         0.395513
 C        -0.274797         0.083099        -0.428180
 O         0.360332         0.148022        -1.483206
 O        -0.825220         1.260462         0.043987
 C        -1.618086         1.289870         1.364508
 H        -3.881666         1.342038         2.648389
 H        -4.378399        -0.209600         2.865370
 H        -3.108980         0.408005         3.854674
 H        -3.842481        -1.270786         0.553058
 H        -3.044906        -0.209408        -0.512658
 H        -2.057216        -2.254097         1.475637
 H         0.380342        -1.098500         1.121139
 H        -0.114572        -2.065334        -0.282086
 H        -0.815896         1.414814         2.126298
 H        -2.278800         2.167425         1.201560
