19
Iteration:  2754charge 0 multiplicity 1
 C        -3.033635         0.182258         2.971459
 C        -2.508614         0.056763         1.526533
 C        -3.134396        -0.687019         0.397665
 C        -1.839679        -1.281575         1.117418
 C        -0.599400        -1.221801         0.275150
 C        -0.196050         0.089806        -0.331181
 O         0.690106         0.247607        -1.122676
 O        -1.021676         1.194683        -0.183196
 C        -1.749669         1.379640         1.143973
 H        -3.564413         1.272609         3.063616
 H        -3.802722        -0.563938         3.259542
 H        -2.159395         0.211043         3.632089
 H        -4.095170        -1.029014         0.558619
 H        -3.128224        -0.414931        -0.672587
 H        -2.014668        -2.137557         1.781974
 H         0.347250        -1.713064         0.666202
 H        -0.935368        -1.812482        -0.634866
 H        -0.948083         1.609368         1.855421
 H        -2.417153         2.323158         1.059615
