19
Iteration:   750charge 0 multiplicity 1
 C        -2.864056         0.304985         2.935685
 C        -2.561110         0.133912         1.456525
 C        -3.351973        -0.894591         0.690368
 C        -1.905081        -1.264426         1.064826
 C        -0.978241        -1.282666        -0.078807
 C        -0.182665         0.102389        -0.362300
 O         0.871874         0.260459        -1.005036
 O        -0.572521         1.245955         0.265052
 C        -1.947914         1.362433         0.758203
 H        -3.816030         0.623150         3.139791
 H        -2.856410        -0.567180         3.544108
 H        -2.240174         1.059975         3.263728
 H        -4.263609        -1.342854         1.173226
 H        -3.417372        -0.782837        -0.448001
 H        -1.423405        -1.847185         1.954473
 H        -0.127897        -1.938369         0.049007
 H        -1.349744        -1.640537        -1.096284
 H        -1.850810         2.065486         1.544218
 H        -2.693414         1.765443         0.047585
