19
Iteration:  2310charge 0 multiplicity 1
 C        -3.193634         0.302951         2.979381
 C        -2.374127         0.028646         1.651705
 C        -3.055494        -0.633280         0.477185
 C        -1.819086        -1.291933         0.960126
 C        -0.548051        -1.254288         0.292599
 C        -0.254771         0.078389        -0.357584
 O         0.663517         0.296206        -1.142755
 O        -1.141071         1.122451        -0.220684
 C        -1.635901         1.326123         1.180278
 H        -3.266445         1.371689         2.956926
 H        -4.188244        -0.071843         2.706393
 H        -2.779714        -0.085152         3.940423
 H        -3.925196        -1.242409         0.529262
 H        -3.057088        -0.208714        -0.536947
 H        -1.886487        -2.170383         1.632739
 H         0.259265        -1.547217         0.856603
 H        -0.553261        -1.943297        -0.572833
 H        -0.841546         1.440341         1.959938
 H        -2.311341         2.118107         1.025754
