19
Iteration:  2282
 C        -3.167846         0.093072         2.865380
 C        -2.445145         0.071331         1.482489
 C        -3.119709        -0.690019         0.426195
 C        -1.819908        -1.156730         1.255413
 C        -0.629583        -1.151039         0.330483
 C        -0.272015         0.122904        -0.418367
 O         0.629265         0.188030        -1.195041
 O        -1.017173         1.250008        -0.207893
 C        -1.578964         1.287295         1.225517
 H        -3.437171         1.176236         3.073438
 H        -4.129922        -0.391459         2.782860
 H        -2.421466        -0.337225         3.528047
 H        -4.180704        -1.088922         0.716406
 H        -2.971848        -0.730300        -0.652087
 H        -1.799342        -1.943804         1.999234
 H         0.392525        -1.270614         0.917036
 H        -0.660671        -1.983872        -0.431612
 H        -0.844839         1.353838         2.097048
 H        -2.107117         2.328868         1.292375
