19
Iteration:  2873
 C        -3.120171        -0.063663         2.855429
 C        -2.543391         0.109570         1.544860
 C        -3.122328        -0.653536         0.334621
 C        -1.885266        -1.189315         1.120275
 C        -0.494711        -1.021224         0.543702
 C        -0.181209         0.170073        -0.347664
 O         0.428328         0.028126        -1.380075
 O        -0.860822         1.300615        -0.045281
 C        -1.603307         1.359273         1.166048
 H        -4.079181         0.510279         2.952012
 H        -3.320551        -1.123313         2.976593
 H        -2.439074         0.389451         3.535161
 H        -4.042281        -1.286089         0.459448
 H        -3.094784        -0.273734        -0.630961
 H        -1.988781        -2.114629         1.722116
 H         0.287603        -1.005781         1.402965
 H        -0.321169        -1.880955        -0.129073
 H        -1.093638         1.849260         1.963196
 H        -2.347466         2.182068         0.829492
