19
Iteration:  3669charge 0 multiplicity 1
 C        -3.284754         0.199404         2.903945
 C        -2.409706         0.023861         1.596319
 C        -3.135534        -0.159911         0.338701
 C        -2.030574        -1.177952         0.817962
 C        -0.611097        -1.355804         0.218554
 C        -0.196685        -0.054476        -0.370274
 O         0.317058         0.063143        -1.488993
 O        -0.541443         1.159633         0.298942
 C        -1.433122         1.281300         1.416877
 H        -3.660219        -0.731174         3.404289
 H        -2.977320         0.930255         3.626304
 H        -4.249940         0.686858         2.669386
 H        -4.066237        -0.544466         0.588664
 H        -3.236027         0.713234        -0.368458
 H        -2.567395        -2.136471         1.107284
 H         0.217345        -1.820502         0.820960
 H        -0.545960        -2.078222        -0.665380
 H        -0.818998         1.234336         2.356881
 H        -2.037577         2.135574         1.323429
