19
Iteration:   302charge 0 multiplicity 1
 C        -2.906213         0.266284         3.029440
 C        -2.468610         0.053685         1.561314
 C        -3.334036        -0.684868         0.455613
 C        -2.026730        -1.211406         0.995938
 C        -1.001871        -1.224591        -0.124036
 C        -0.169367         0.066013        -0.396501
 O         0.969541         0.123089        -0.817071
 O        -0.832146         1.254406        -0.057057
 C        -1.716490         1.342638         1.079843
 H        -2.998935         1.387664         3.172177
 H        -3.775933        -0.223404         3.345336
 H        -2.068717        -0.031402         3.593647
 H        -4.133123        -1.391431         0.828323
 H        -3.298475        -0.269176        -0.554936
 H        -1.994124        -2.127579         1.514993
 H        -0.335472        -2.036068        -0.092144
 H        -1.523919        -1.404653        -1.122865
 H        -1.014815         1.532395         1.918407
 H        -2.323118         2.268702         1.064404
