19
Iteration:  2134
 C        -3.447895         0.310366         2.696283
 C        -2.392552         0.022925         1.606809
 C        -2.871956        -0.699519         0.343901
 C        -1.777506        -1.330787         1.142368
 C        -0.388615        -1.097501         0.593573
 C        -0.352889         0.174210        -0.448330
 O         0.235008         0.161006        -1.532518
 O        -0.878395         1.229255         0.034226
 C        -1.482439         1.172002         1.356221
 H        -3.910743         1.226789         2.335406
 H        -4.117715        -0.564453         2.950578
 H        -2.959927         0.604133         3.684691
 H        -3.917336        -1.078011         0.522768
 H        -2.584062        -0.327702        -0.626290
 H        -2.008889        -2.257513         1.712958
 H         0.325489        -0.833473         1.385990
 H        -0.054496        -1.964465        -0.028206
 H        -0.567148         1.278870         1.979193
 H        -2.115434         2.086230         1.445114
