19
Iteration:  2645charge 0 multiplicity 1
 C        -3.294657         0.279774         2.810683
 C        -2.454315         0.010099         1.637951
 C        -2.976356        -0.627411         0.455275
 C        -1.820842        -1.256427         1.147393
 C        -0.495822        -1.196115         0.343995
 C        -0.212616         0.097715        -0.408818
 O         0.480990         0.244822        -1.381206
 O        -0.908502         1.155969        -0.028631
 C        -1.673044         1.238722         1.247254
 H        -3.606144         1.344922         2.655369
 H        -4.082812        -0.469689         2.867058
 H        -2.767136         0.404186         3.749864
 H        -3.889216        -1.080581         0.643316
 H        -2.711202        -0.213668        -0.492067
 H        -2.082238        -2.179239         1.709453
 H         0.340639        -1.505868         0.892025
 H        -0.618489        -1.965536        -0.452604
 H        -0.936834         1.657498         1.972013
 H        -2.435816         2.074853         1.094005
