19
Iteration:  2203charge 0 multiplicity 1
 C        -3.226070         0.162541         2.879607
 C        -2.426536         0.085371         1.532092
 C        -2.986593        -0.690298         0.269342
 C        -1.885062        -1.286686         1.067456
 C        -0.414814        -1.221900         0.500726
 C        -0.319711         0.067316        -0.393272
 O         0.254325         0.146438        -1.453256
 O        -0.680583         1.305166         0.155635
 C        -1.708241         1.366119         1.180276
 H        -4.269883         0.407644         2.693568
 H        -3.098758        -0.740172         3.487570
 H        -2.857928         1.004437         3.524256
 H        -3.960078        -1.087913         0.279721
 H        -2.456996        -0.376269        -0.682308
 H        -2.138418        -1.896243         1.935755
 H         0.369262        -1.330904         1.340661
 H        -0.304489        -1.967031        -0.237208
 H        -1.264420         1.816731         2.120607
 H        -2.358271         2.191395         0.748070
