19
Iteration:  4469charge 0 multiplicity 1
 C        -3.145578         0.224719         2.875705
 C        -2.463148         0.017222         1.523897
 C        -3.025203        -0.402926         0.175759
 C        -2.039962        -1.242221         0.851915
 C        -0.525125        -1.224596         0.414076
 C        -0.233365         0.132675        -0.328507
 O         0.193928         0.048472        -1.431089
 O        -0.703037         1.273223         0.257156
 C        -1.468390         1.173163         1.422062
 H        -2.914373         1.273460         2.897196
 H        -4.234439         0.038961         2.754393
 H        -2.537112        -0.376977         3.605936
 H        -3.999702        -0.733291        -0.014635
 H        -2.668558        -0.006754        -0.777357
 H        -2.255237        -2.244654         1.252389
 H         0.021518        -1.494019         1.303609
 H        -0.386808        -2.002542        -0.336463
 H        -0.813187         1.146573         2.421355
 H        -2.026483         2.152568         1.348252
