19
Iteration:  4272
 C        -3.069871         0.051266         2.916340
 C        -2.486818         0.106063         1.574043
 C        -3.112003        -0.227610         0.304025
 C        -2.006755        -1.174788         0.921209
 C        -0.776075        -1.340043         0.163716
 C        -0.247662        -0.004473        -0.332721
 O         0.586638         0.091538        -1.241768
 O        -0.795335         1.237131         0.138708
 C        -1.557589         1.287071         1.342320
 H        -3.628328        -0.880003         2.903999
 H        -2.217932        -0.049466         3.622846
 H        -3.722680         0.953745         2.907910
 H        -4.149107        -0.587370         0.173045
 H        -2.725301         0.215671        -0.653553
 H        -2.418007        -2.040259         1.520745
 H         0.089958        -1.976307         0.623614
 H        -0.971736        -1.863388        -0.799603
 H        -0.704571         1.249066         2.098155
 H        -1.893043         2.389167         1.480357
