19
Iteration:  2643
 C        -3.315376         0.293169         2.811036
 C        -2.425570        -0.005378         1.649804
 C        -2.977304        -0.616799         0.451804
 C        -1.819791        -1.262452         1.137844
 C        -0.491788        -1.195788         0.343092
 C        -0.195619         0.115671        -0.403251
 O         0.467831         0.241423        -1.391514
 O        -0.907705         1.145959        -0.027531
 C        -1.666417         1.227114         1.255040
 H        -3.626385         1.367587         2.708390
 H        -4.133880        -0.421843         2.894976
 H        -2.839751         0.440314         3.754804
 H        -3.978792        -1.059073         0.597180
 H        -2.714107        -0.249370        -0.457548
 H        -2.077333        -2.186876         1.706104
 H         0.404388        -1.511105         0.902606
 H        -0.599501        -1.921830        -0.463168
 H        -0.969049         1.696278         1.943424
 H        -2.485078         2.016248         1.059198
