19
Iteration:  1715charge 0 multiplicity 1
 C        -3.164109         0.074727         2.856894
 C        -2.541656         0.148082         1.488867
 C        -2.930791        -0.475103         0.265692
 C        -1.712106        -1.152817         1.068840
 C        -0.358932        -1.166663         0.536830
 C        -0.195713         0.018861        -0.291615
 O         0.180222        -0.030669        -1.413409
 O        -0.791657         1.191883         0.064779
 C        -1.877484         1.434445         1.210052
 H        -3.666798         1.068288         3.057722
 H        -3.868581        -0.754012         2.932908
 H        -2.347157        -0.030730         3.549747
 H        -3.809845        -1.172031         0.247602
 H        -2.534542         0.003345        -0.585028
 H        -2.027056        -2.116188         1.613729
 H         0.381951        -1.095668         1.276931
 H        -0.104823        -2.013341        -0.142769
 H        -1.321636         1.668610         2.182273
 H        -2.321307         2.317555         0.703609
