19
Iteration:  1679
 C        -3.269809         0.085486         2.787080
 C        -2.449400         0.072083         1.574429
 C        -3.015132        -0.613413         0.388997
 C        -1.884653        -1.252137         1.149424
 C        -0.488444        -1.104722         0.596522
 C        -0.202905         0.092496        -0.418270
 O         0.325174         0.062183        -1.515228
 O        -0.748733         1.282031        -0.074096
 C        -1.655151         1.363691         1.273883
 H        -3.847589         1.013561         2.889199
 H        -3.992168        -0.753074         2.877838
 H        -2.672884         0.000739         3.716998
 H        -3.941345        -1.161376         0.410454
 H        -2.887740        -0.380283        -0.677439
 H        -2.047967        -2.027902         1.881150
 H         0.104000        -0.858907         1.598737
 H         0.041727        -1.922739         0.142706
 H        -0.953011         1.556050         2.122415
 H        -2.204112         2.341509         1.115391
