19
Iteration:   442
 C        -3.319959         0.293993         2.909382
 C        -2.478220         0.039996         1.642615
 C        -3.113926        -0.555781         0.408928
 C        -1.862455        -1.227763         1.016749
 C        -0.510340        -1.213140         0.304243
 C        -0.204023         0.091274        -0.456895
 O         0.577957         0.145892        -1.359183
 O        -0.910320         1.196302         0.002478
 C        -1.555271         1.204275         1.329975
 H        -4.027629        -0.449821         2.792054
 H        -2.892741         0.460829         3.931904
 H        -3.883705         1.227799         2.668923
 H        -4.054078        -1.144771         0.574320
 H        -2.982172         0.030066        -0.507778
 H        -2.058115        -2.144307         1.511579
 H         0.304447        -1.509103         0.916835
 H        -0.546135        -1.987994        -0.461640
 H        -0.737347         1.283543         2.035042
 H        -2.033412         2.200058         1.272040
