19
Iteration:  2343
 C        -3.014979         0.276528         2.967645
 C        -2.554185         0.043535         1.556843
 C        -3.302645        -0.689073         0.488456
 C        -1.934105        -1.277353         1.015216
 C        -0.570785        -1.187769         0.362716
 C        -0.130147         0.104560        -0.447250
 O         0.796745         0.343977        -1.207679
 O        -1.003806         1.117325        -0.180366
 C        -1.767626         1.241899         1.155370
 H        -3.260874         1.309708         3.161096
 H        -3.871761        -0.330270         3.288374
 H        -2.280870         0.091288         3.793615
 H        -4.151610        -1.371615         0.724853
 H        -3.187278        -0.339464        -0.531147
 H        -1.968558        -2.124661         1.732770
 H         0.177924        -1.349406         1.094125
 H        -0.343533        -1.954759        -0.404220
 H        -0.944408         1.393713         1.954174
 H        -2.324886         2.187340         1.084406
