19
Iteration:  3649
 C        -3.136538         0.200850         2.927650
 C        -2.451765         0.107007         1.582724
 C        -3.216494        -0.269224         0.287408
 C        -2.122269        -1.153166         0.738438
 C        -0.703291        -1.254823         0.288436
 C        -0.175155         0.016274        -0.360245
 O         0.366783         0.096904        -1.465819
 O        -0.537780         1.098781         0.265557
 C        -1.431235         1.180503         1.445729
 H        -3.539330        -0.817142         3.262614
 H        -2.507433         0.538851         3.741392
 H        -3.979171         0.924082         2.976353
 H        -4.218872        -0.587095         0.123281
 H        -2.976917         0.231079        -0.672806
 H        -2.542176        -2.042883         1.297802
 H        -0.086902        -1.431578         1.152149
 H        -0.538974        -2.168900        -0.327446
 H        -0.747460         1.289217         2.344791
 H        -2.040606         2.037801         1.269614
