19
Iteration:   814
 C        -2.687004         0.536476         2.924029
 C        -2.522312        -0.019835         1.496376
 C        -3.400040        -1.087759         0.902820
 C        -1.899108        -1.267981         0.932240
 C        -1.161558        -1.016840        -0.427470
 C        -0.153063         0.193308        -0.398564
 O         1.024346         0.253368        -0.708223
 O        -0.641260         1.177226         0.416237
 C        -2.026813         1.189015         0.570919
 H        -3.133866         1.537841         2.793762
 H        -3.350737        -0.076002         3.613474
 H        -1.662065         0.537925         3.426298
 H        -3.940201        -1.677995         1.664362
 H        -3.901032        -1.016746        -0.147134
 H        -1.456188        -2.057196         1.630400
 H        -0.634121        -1.929307        -0.644331
 H        -1.886656        -0.819892        -1.214866
 H        -2.214900         2.181115         0.882148
 H        -2.486839         1.152088        -0.412651
