19
Iteration:   362charge 0 multiplicity 1
 C        -2.829554         0.053872         3.040765
 C        -2.557381         0.113857         1.496915
 C        -3.443886        -0.613369         0.521705
 C        -2.058912        -1.156297         0.950778
 C        -0.832488        -1.170499         0.090308
 C        -0.145494         0.096263        -0.366066
 O         0.880114         0.084587        -0.964943
 O        -0.711498         1.292155        -0.033245
 C        -1.794146         1.339915         0.928025
 H        -1.927655         0.030619         3.702497
 H        -3.483047         0.840613         3.552889
 H        -3.370202        -0.956546         3.254180
 H        -4.337025        -1.031257         0.872272
 H        -3.601170        -0.340573        -0.519170
 H        -2.192506        -1.945562         1.750242
 H         0.027750        -1.583003         0.738149
 H        -0.881050        -1.748502        -0.825155
 H        -1.254708         1.711756         1.871767
 H        -2.483319         2.072315         0.514233
