19
Iteration:  4149
 C        -3.292372         0.076168         2.826093
 C        -2.355033         0.130261         1.572530
 C        -3.090187        -0.281785         0.318625
 C        -2.063378        -1.222482         0.843960
 C        -0.699344        -1.305387         0.276478
 C        -0.246258         0.018459        -0.389937
 O         0.363270         0.089001        -1.423039
 O        -0.624213         1.222078         0.241155
 C        -1.379052         1.291891         1.471402
 H        -3.568854        -0.985552         2.836822
 H        -2.624784         0.137472         3.648766
 H        -4.135266         0.765578         2.794320
 H        -4.179183        -0.556080         0.339331
 H        -2.786841         0.284962        -0.591160
 H        -2.390127        -2.065130         1.386930
 H        -0.007248        -1.618820         1.136307
 H        -0.640992        -2.136696        -0.495078
 H        -0.763291         1.517025         2.362632
 H        -1.977628         2.232436         1.349763
