19
Iteration:  4720
 C        -3.105697         0.143161         2.847041
 C        -2.437347         0.111356         1.478537
 C        -3.246745        -0.431674         0.308757
 C        -2.108870        -1.153340         0.946526
 C        -0.713415        -1.214049         0.289127
 C        -0.274698         0.115835        -0.410773
 O         0.550003         0.048907        -1.301645
 O        -0.763404         1.290125         0.093121
 C        -1.380381         1.135738         1.455896
 H        -3.776108         1.015625         2.999205
 H        -3.630224        -0.823546         2.803826
 H        -2.277317         0.082400         3.594379
 H        -4.161755        -0.831484         0.724583
 H        -3.128363         0.055082        -0.640696
 H        -2.285126        -2.141838         1.416795
 H         0.144859        -1.393090         0.994750
 H        -0.665409        -1.978001        -0.500387
 H        -0.487422         0.959181         2.204581
 H        -1.875543         2.188331         1.642614
