19
Iteration:  2364
 C        -2.952857         0.140738         2.965193
 C        -2.558445         0.127628         1.487781
 C        -3.270855        -0.854222         0.420928
 C        -1.935856        -1.185066         0.990241
 C        -0.588207        -1.135523         0.362813
 C        -0.241856         0.159150        -0.344468
 O         0.700499         0.125172        -1.102743
 O        -0.985072         1.313942        -0.150805
 C        -1.636562         1.335186         1.038178
 H        -3.513345         1.006354         3.284438
 H        -3.425483        -0.805519         3.262826
 H        -2.059839         0.208873         3.656002
 H        -4.089622        -1.400902         0.930325
 H        -3.489909        -0.457239        -0.555626
 H        -1.984723        -2.034114         1.711785
 H         0.230256        -1.264916         1.097664
 H        -0.412109        -1.980877        -0.403990
 H        -0.953125         1.509958         1.965888
 H        -2.298041         2.182015         0.938832
