19
Iteration:  2411charge 0 multiplicity 1
 C        -3.148006         0.149785         3.012863
 C        -2.477843         0.123995         1.631991
 C        -3.101793        -0.620013         0.479260
 C        -1.868051        -1.226829         1.023412
 C        -0.489898        -1.219559         0.321500
 C        -0.223347         0.075003        -0.387089
 O         0.589385         0.198445        -1.271250
 O        -0.829297         1.148015        -0.044998
 C        -1.835130         1.404950         1.013836
 H        -4.131360         0.742262         3.049393
 H        -3.208898        -0.937129         3.297168
 H        -2.572717         0.630601         3.875418
 H        -3.946885        -1.418306         0.653649
 H        -3.058601        -0.191003        -0.591892
 H        -2.115408        -2.132141         1.578292
 H         0.370996        -1.515911         0.859659
 H        -0.604987        -1.979119        -0.426959
 H        -1.288049         1.925386         1.899615
 H        -2.632371         2.124790         0.602456
