19
Iteration:  3956charge 0 multiplicity 1
 C        -3.126848         0.154142         2.975210
 C        -2.489266         0.098684         1.568699
 C        -3.168388        -0.259676         0.300885
 C        -2.131969        -1.155538         0.885504
 C        -0.762303        -1.332755         0.204798
 C        -0.187216        -0.068539        -0.444240
 O         0.598002         0.139737        -1.346608
 O        -0.686851         1.195540         0.153737
 C        -1.509163         1.190878         1.411763
 H        -3.494356        -0.851559         3.269871
 H        -2.238559         0.252607         3.640852
 H        -3.918781         0.926871         2.992481
 H        -4.268017        -0.486301         0.292852
 H        -2.889872         0.496216        -0.420546
 H        -2.495423        -1.962277         1.434732
 H         0.121554        -1.550366         0.881961
 H        -0.799430        -2.178524        -0.458129
 H        -0.859778         1.374402         2.278707
 H        -1.989867         2.122473         1.227267
