19
Iteration:  2299charge 0 multiplicity 1
 C        -3.179097         0.239260         2.873257
 C        -2.419792         0.142575         1.573811
 C        -3.026815        -0.714997         0.474455
 C        -1.821534        -1.295045         1.057894
 C        -0.521928        -1.236365         0.266456
 C        -0.282847         0.126845        -0.403056
 O         0.656485         0.197006        -1.132747
 O        -1.177787         1.199140        -0.144928
 C        -1.592540         1.335969         1.175392
 H        -3.420126         1.231819         3.227154
 H        -4.180013        -0.253485         2.805117
 H        -2.730458        -0.277221         3.757240
 H        -3.927341        -1.208768         0.719861
 H        -2.903159        -0.204748        -0.490983
 H        -2.005761        -2.131042         1.760915
 H         0.280595        -1.536666         0.839548
 H        -0.637855        -1.945423        -0.544113
 H        -0.694443         1.580986         1.783399
 H        -2.072155         2.266911         1.250654
