19
Iteration:  1713
 C        -3.178093         0.077804         2.862842
 C        -2.547068         0.155383         1.510456
 C        -2.932238        -0.455356         0.265170
 C        -1.700552        -1.151793         1.063369
 C        -0.357320        -1.168677         0.516401
 C        -0.215506         0.030834        -0.297335
 O         0.189271        -0.043783        -1.409225
 O        -0.800159         1.177234         0.074349
 C        -1.870614         1.425780         1.203053
 H        -3.685342         1.041312         3.133718
 H        -3.894210        -0.759039         2.881044
 H        -2.328478        -0.028571         3.527878
 H        -3.721728        -1.228121         0.224369
 H        -2.551504        -0.014169        -0.582820
 H        -2.043306        -2.032662         1.648773
 H         0.465678        -1.060979         1.353213
 H        -0.041974        -1.905688        -0.212913
 H        -1.313760         1.632601         2.151207
 H        -2.268382         2.285217         0.632198
