19
Iteration:  3776charge 0 multiplicity 1
 C        -3.230826         0.186991         2.914055
 C        -2.452921         0.099443         1.583185
 C        -3.053200        -0.183875         0.239643
 C        -2.043964        -1.239858         0.897914
 C        -0.635921        -1.312330         0.322086
 C        -0.266088        -0.002543        -0.427115
 O         0.346137         0.111721        -1.434991
 O        -0.680662         1.117216         0.183513
 C        -1.372665         1.223696         1.456937
 H        -4.162941        -0.400152         2.803332
 H        -2.691289        -0.160088         3.825641
 H        -3.603844         1.234422         3.008644
 H        -4.092316        -0.426158         0.187207
 H        -2.628931         0.113909        -0.740508
 H        -2.545869        -2.110392         1.384983
 H         0.017237        -1.445876         1.200957
 H        -0.473132        -2.093548        -0.461541
 H        -0.669833         1.178749         2.315154
 H        -1.889901         2.220832         1.544474
