19
Iteration:  2504charge 0 multiplicity 1
 C        -3.419922         0.182417         2.828744
 C        -2.483488         0.105515         1.577568
 C        -2.929953        -0.588174         0.307048
 C        -1.774598        -1.166733         1.098411
 C        -0.371963        -1.097610         0.532012
 C        -0.286882         0.064002        -0.409782
 O         0.227116         0.093085        -1.506846
 O        -0.852081         1.181228         0.025664
 C        -1.503525         1.242731         1.311493
 H        -3.954503         1.125559         2.791877
 H        -3.959117        -0.757961         2.731504
 H        -2.763758         0.123392         3.710498
 H        -3.832994        -1.222190         0.294357
 H        -2.626419        -0.205604        -0.593282
 H        -1.970904        -1.923692         1.895660
 H         0.347784        -0.921229         1.381561
 H        -0.031799        -2.025817        -0.015788
 H        -0.731015         1.319239         2.090019
 H        -2.006938         2.229763         1.344360
