19
Iteration:   672
 C        -2.947697         0.026024         2.889943
 C        -2.547795         0.198589         1.491217
 C        -3.260537        -0.640158         0.421038
 C        -1.954936        -1.130769         1.078808
 C        -0.573264        -1.193602         0.399770
 C        -0.200684         0.107203        -0.300717
 O         0.707261         0.139045        -1.113065
 O        -1.046407         1.184573        -0.208952
 C        -1.659424         1.366611         1.066666
 H        -3.309872         0.904959         3.285172
 H        -3.549863        -0.817463         3.092997
 H        -2.090276        -0.278949         3.459161
 H        -4.249283        -1.165646         0.699243
 H        -3.193579        -0.312450        -0.631789
 H        -2.045110        -1.956957         1.802025
 H         0.149845        -1.139938         1.233535
 H        -0.246742        -1.942163        -0.365290
 H        -0.844714         1.471203         1.801196
 H        -2.230320         2.294549         1.096600
