19
Iteration:  1758charge 0 multiplicity 1
 C        -3.259476         0.176121         2.729568
 C        -2.559072         0.026291         1.477623
 C        -3.077049        -0.811112         0.397766
 C        -1.826322        -1.270221         1.120621
 C        -0.495250        -0.996931         0.519827
 C        -0.304788         0.088562        -0.421794
 O         0.328952         0.045094        -1.465856
 O        -0.715783         1.384881         0.071200
 C        -1.516313         1.286808         1.276991
 H        -3.950065         1.073179         2.714942
 H        -3.896748        -0.656983         3.037323
 H        -2.511908         0.498234         3.439556
 H        -4.112378        -0.997028         0.700787
 H        -2.980260        -0.348533        -0.562790
 H        -1.878115        -2.160914         1.808962
 H         0.162188        -0.706218         1.445744
 H        -0.094275        -1.873052        -0.007699
 H        -0.709642         1.166592         2.051269
 H        -2.145673         2.166528         1.355760
