19
Iteration:   426charge 0 multiplicity 1
 C        -3.253320         0.261566         2.927024
 C        -2.399588         0.022834         1.631175
 C        -3.130236        -0.538427         0.414658
 C        -1.966306        -1.252309         1.031014
 C        -0.618894        -1.287480         0.226213
 C        -0.165904         0.045829        -0.427415
 O         0.664982         0.218758        -1.316036
 O        -0.862871         1.193982        -0.000655
 C        -1.672330         1.272483         1.246587
 H        -3.577526        -0.585450         3.656245
 H        -2.460283         0.712809         3.588314
 H        -4.036218         1.023166         2.620249
 H        -4.106692        -0.913219         0.553701
 H        -2.925653        -0.032144        -0.535303
 H        -2.146664        -2.217741         1.599451
 H         0.191240        -1.430305         1.078160
 H        -0.537138        -2.162671        -0.459953
 H        -1.049235         1.709339         2.118959
 H        -2.462274         2.033938         1.138325
