19
Iteration:   468
 C        -3.359476         0.207872         2.764636
 C        -2.435764         0.131182         1.491796
 C        -3.043509        -0.623530         0.315205
 C        -1.877954        -1.207617         1.130702
 C        -0.539594        -1.173729         0.470425
 C        -0.281224         0.112200        -0.384474
 O         0.377767         0.130633        -1.440190
 O        -0.918883         1.279174         0.011843
 C        -1.335092         1.177726         1.384215
 H        -4.334259        -0.266290         2.352730
 H        -3.023902        -0.407368         3.565570
 H        -3.435191         1.227081         3.031881
 H        -4.014690        -0.956321         0.616142
 H        -2.770022        -0.443776        -0.751408
 H        -1.942014        -2.015571         1.915746
 H         0.167035        -1.231302         1.321317
 H        -0.328309        -2.130399        -0.063986
 H        -0.444944         1.001406         1.985145
 H        -1.515531         2.219885         1.688719
