19
Iteration:  1501charge 0 multiplicity 1
 C        -3.190487         0.315626         2.991845
 C        -2.469924         0.006868         1.636821
 C        -3.127974        -0.611510         0.382875
 C        -1.914694        -1.254856         0.958088
 C        -0.479691        -1.192785         0.418252
 C        -0.151951         0.154184        -0.329718
 O         0.587175         0.121584        -1.273387
 O        -1.054925         1.146452        -0.152189
 C        -1.591933         1.282412         1.144409
 H        -3.386318         1.401842         3.086605
 H        -4.102270        -0.270798         3.206354
 H        -2.336197         0.112382         3.702427
 H        -4.087028        -1.068357         0.474448
 H        -2.870305        -0.077926        -0.519055
 H        -2.045925        -2.222505         1.494498
 H         0.295053        -1.295676         1.161233
 H        -0.333379        -2.021487        -0.328228
 H        -0.867479         1.797976         1.920194
 H        -2.428604         1.988608         1.061108
