19
Iteration:  2251charge 0 multiplicity 1
 C        -3.189209         0.144807         2.951742
 C        -2.558105         0.079860         1.501483
 C        -3.234356        -0.733301         0.388569
 C        -1.832863        -1.238904         1.076395
 C        -0.470413        -1.137248         0.371438
 C        -0.165862         0.107410        -0.379726
 O         0.525333         0.120621        -1.379092
 O        -0.796285         1.296992        -0.040211
 C        -1.700781         1.363512         1.212109
 H        -3.870993         1.022039         3.113425
 H        -3.690350        -0.789362         3.269585
 H        -2.394455         0.280606         3.693181
 H        -4.045824        -1.327100         0.885950
 H        -3.213897        -0.479804        -0.639000
 H        -2.020770        -2.154716         1.618696
 H         0.273837        -1.084438         1.281584
 H        -0.268310        -2.129510        -0.155585
 H        -1.113793         1.664552         2.165418
 H        -2.261399         2.323611         0.886740
