19
Iteration:  4113
 C        -3.227009         0.174712         2.834141
 C        -2.551815         0.088180         1.527364
 C        -3.201140        -0.398574         0.236678
 C        -2.066615        -1.127029         0.892916
 C        -0.680244        -1.117210         0.421944
 C        -0.175007         0.059872        -0.414285
 O         0.346336         0.108953        -1.506705
 O        -0.551350         1.204362         0.252249
 C        -1.336443         1.063266         1.433313
 H        -4.242236        -0.279814         2.777698
 H        -2.712297        -0.392703         3.691253
 H        -3.432264         1.046838         3.443849
 H        -4.164939        -0.835498         0.238322
 H        -2.912738         0.099304        -0.655257
 H        -2.193484        -2.112402         1.440701
 H         0.039973        -1.248441         1.298012
 H        -0.464617        -1.939160        -0.308006
 H        -0.688894         0.707735         2.305870
 H        -1.848193         2.063788         1.534203
