19
Iteration:  4648
 C        -3.150506         0.019436         2.972347
 C        -2.434507         0.225334         1.554115
 C        -3.153870        -0.385073         0.340878
 C        -2.044132        -1.181836         0.938482
 C        -0.672447        -1.307937         0.165756
 C        -0.284796         0.053727        -0.321757
 O         0.562921         0.068046        -1.254228
 O        -0.776815         1.249736         0.019271
 C        -1.487695         1.319281         1.344527
 H        -3.572976         0.956552         3.417604
 H        -3.923001        -0.726172         2.739999
 H        -2.427476        -0.471561         3.641726
 H        -4.057190        -0.897404         0.591775
 H        -2.999938         0.221994        -0.549856
 H        -2.231286        -2.071253         1.491553
 H         0.026609        -1.797128         0.855578
 H        -0.761937        -1.954492        -0.723201
 H        -0.659680         1.528613         2.048183
 H        -1.994810         2.252975         1.201685
