19
Iteration:  3490
 C        -3.187494         0.112950         2.948119
 C        -2.498444         0.171203         1.600942
 C        -3.216165        -0.394547         0.374058
 C        -2.065905        -1.167058         0.948469
 C        -0.760731        -1.272707         0.183427
 C        -0.203877         0.009448        -0.435158
 O         0.553261         0.109396        -1.344121
 O        -0.604847         1.233360         0.119146
 C        -1.466241         1.220599         1.338527
 H        -3.501878         1.039456         3.426203
 H        -4.180446        -0.377550         2.669612
 H        -2.596992        -0.549858         3.638003
 H        -4.256776        -0.670368         0.507078
 H        -3.004417         0.249141        -0.513495
 H        -2.159983        -2.131381         1.441709
 H         0.077158        -1.570751         0.953719
 H        -0.779506        -2.082413        -0.542419
 H        -0.677985         1.284663         2.178630
 H        -2.060737         2.206001         1.226108
