19
Iteration:  3317
 C        -3.283273         0.084743         2.779167
 C        -2.516956         0.126037         1.503901
 C        -3.210832        -0.571179         0.300399
 C        -2.016433        -1.196413         1.059014
 C        -0.552542        -1.171197         0.437388
 C        -0.258972         0.129335        -0.427669
 O         0.352715         0.114196        -1.498360
 O        -0.548135         1.273503         0.151294
 C        -1.435603         1.266621         1.412700
 H        -4.026475        -0.674669         2.720471
 H        -2.446828        -0.326000         3.400161
 H        -3.715218         1.042616         3.262682
 H        -4.191929        -1.032316         0.500283
 H        -3.096952        -0.367039        -0.782704
 H        -2.166396        -1.979122         1.784638
 H         0.234749        -1.220903         1.197008
 H        -0.359290        -2.019512        -0.188226
 H        -0.697224         1.175934         2.256823
 H        -1.873397         2.226838         1.502744
