19
Iteration:  2554
 C        -3.213668         0.062244         2.831434
 C        -2.453437         0.091562         1.474936
 C        -3.015083        -0.592539         0.171239
 C        -1.827896        -1.200897         1.013695
 C        -0.381913        -1.037375         0.618332
 C        -0.314624         0.098539        -0.307917
 O         0.117020        -0.102635        -1.417844
 O        -0.749235         1.338945         0.090314
 C        -1.535035         1.347027         1.260669
 H        -4.093646         0.732962         2.641643
 H        -3.450236        -0.988986         2.975002
 H        -2.592864         0.402865         3.646542
 H        -4.006571        -1.006555         0.324960
 H        -2.808158        -0.001868        -0.724854
 H        -2.133974        -2.129836         1.463360
 H         0.333423        -0.817615         1.410808
 H        -0.000658        -1.868662         0.090254
 H        -0.921419         1.405650         2.182317
 H        -2.082180         2.301996         1.363660
