19
Iteration:  3463
 C        -3.199775         0.197047         2.964161
 C        -2.463214         0.095341         1.657141
 C        -3.182216        -0.329817         0.300284
 C        -1.982182        -1.151585         0.836353
 C        -0.566499        -1.322171         0.160279
 C        -0.128644        -0.036475        -0.354565
 O         0.484331         0.127768        -1.419901
 O        -0.801366         1.095099         0.197124
 C        -1.524867         1.290763         1.424500
 H        -2.954058         1.214592         3.381949
 H        -4.205983         0.465036         2.823025
 H        -2.974347        -0.597251         3.644416
 H        -4.320472        -0.411261         0.326594
 H        -2.944826         0.380083        -0.459900
 H        -2.215611        -2.242095         1.093597
 H         0.092660        -1.713970         0.912420
 H        -0.589609        -2.166028        -0.606765
 H        -0.825142         1.488699         2.191428
 H        -2.178617         2.128877         1.288744
