19
Iteration:  3722
 C        -3.248119         0.258259         2.721229
 C        -2.513156         0.197165         1.483585
 C        -3.147432        -0.428553         0.311006
 C        -2.083996        -1.167544         0.935959
 C        -0.720473        -1.285896         0.258033
 C        -0.267254         0.044796        -0.374051
 O         0.298188         0.091483        -1.420201
 O        -0.546916         1.273940         0.248890
 C        -1.192410         1.077751         1.510274
 H        -3.304370        -0.741038         3.189749
 H        -2.775922         0.738534         3.587600
 H        -4.306791         0.546168         2.750048
 H        -4.156003        -0.634438         0.381137
 H        -2.987938        -0.008545        -0.738521
 H        -2.431815        -1.977382         1.613715
 H         0.036184        -1.578877         1.100408
 H        -0.622165        -2.000559        -0.619648
 H        -0.596435         0.484624         2.214426
 H        -1.560235         2.016887         1.993165
