19
Iteration:  4060charge 0 multiplicity 1
 C        -3.313232         0.167246         2.804365
 C        -2.410417         0.079826         1.584914
 C        -3.017996        -0.273759         0.263500
 C        -1.993244        -1.201940         0.965267
 C        -0.658100        -1.285722         0.275116
 C        -0.175955         0.102440        -0.332253
 O         0.342108         0.065202        -1.442128
 O        -0.747302         1.172431         0.122269
 C        -1.380570         1.172845         1.520228
 H        -4.388647         0.113869         2.732361
 H        -3.221871        -0.621428         3.528071
 H        -3.215965         0.996586         3.466101
 H        -4.029364        -0.515338         0.426525
 H        -2.676722         0.370824        -0.503387
 H        -2.501270        -2.128556         1.303730
 H         0.209808        -1.622119         0.938715
 H        -0.592092        -1.867758        -0.693381
 H        -0.657368         1.174890         2.317186
 H        -1.809545         2.198839         1.512615
