19
Iteration:  2827charge 0 multiplicity 1
 C        -3.164378         0.291797         2.935653
 C        -2.445056         0.004860         1.589718
 C        -3.108469        -0.746485         0.394654
 C        -1.821206        -1.207144         1.043721
 C        -0.526688        -1.207260         0.276781
 C        -0.182908         0.088730        -0.382833
 O         0.608091         0.286510        -1.286592
 O        -0.953961         1.124739         0.025029
 C        -1.762888         1.304854         1.173618
 H        -3.937635         1.013577         2.777813
 H        -3.468885        -0.526194         3.567470
 H        -2.398825         0.923492         3.416269
 H        -4.016605        -1.235527         0.532708
 H        -3.112726        -0.249430        -0.617948
 H        -2.065618        -2.119555         1.664169
 H         0.256663        -1.664618         0.939049
 H        -0.695819        -1.859533        -0.543882
 H        -1.155043         1.674977         2.002440
 H        -2.490452         2.146308         0.958808
