19
Iteration:   193charge 0 multiplicity 1
 C        -2.944033         0.119248         2.859218
 C        -2.461227         0.185577         1.467986
 C        -3.348071        -0.400019         0.340145
 C        -2.087245        -1.217621         0.867331
 C        -0.703389        -1.270150         0.247711
 C        -0.258308         0.013904        -0.374561
 O         0.639183         0.079761        -1.130587
 O        -0.785372         1.240660         0.086701
 C        -1.515829         1.268759         1.303583
 H        -3.402029        -0.944246         2.986598
 H        -2.293308         0.356779         3.693681
 H        -3.831192         0.757267         2.962600
 H        -4.373921        -0.759337         0.344584
 H        -3.158381         0.186373        -0.614059
 H        -2.345147        -2.071624         1.406687
 H        -0.066955        -1.371757         1.093696
 H        -0.510478        -2.110201        -0.471640
 H        -0.788499         1.168232         2.144431
 H        -1.832258         2.303923         1.506992
