19
Iteration:  1606
 C        -3.311907         0.288020         2.797454
 C        -2.382682         0.040847         1.643742
 C        -2.995086        -0.608681         0.474029
 C        -1.817788        -1.249571         1.155717
 C        -0.529296        -1.271791         0.409339
 C        -0.261597         0.031568        -0.427499
 O         0.461695         0.258198        -1.383544
 O        -0.896679         1.183140        -0.053942
 C        -1.591507         1.266603         1.222235
 H        -4.149894         0.870445         2.353245
 H        -3.741478        -0.512947         3.399991
 H        -2.866291         0.945891         3.521170
 H        -3.848493        -1.251082         0.429818
 H        -2.778732        -0.220682        -0.516039
 H        -2.169897        -2.046237         1.820528
 H         0.351617        -1.351198         0.956626
 H        -0.526245        -2.115482        -0.286181
 H        -1.018232         1.732816         1.984252
 H        -2.373317         1.959959         0.921968
