19
Iteration:   540charge 0 multiplicity 1
 C        -3.386113         0.132135         2.704705
 C        -2.423990         0.108060         1.471096
 C        -2.906961        -0.501181         0.236581
 C        -1.713506        -1.199392         1.010014
 C        -0.273589        -1.122322         0.625186
 C        -0.261886         0.014649        -0.295706
 O        -0.169145        -0.011595        -1.518419
 O        -0.550563         1.238570         0.293450
 C        -1.629491         1.322121         1.235144
 H        -3.987105         0.977416         2.589133
 H        -4.071986        -0.775198         2.791328
 H        -2.693250         0.216608         3.602190
 H        -3.846507        -1.007796         0.432215
 H        -2.678042        -0.037905        -0.764804
 H        -2.037176        -2.069846         1.469296
 H         0.452075        -0.914837         1.456127
 H         0.162823        -1.981904         0.072613
 H        -1.204351         1.780816         2.155449
 H        -2.205140         2.163462         0.840277
