19
Iteration:  2311charge 0 multiplicity 1
 C        -3.195724         0.307795         2.980342
 C        -2.370729         0.019492         1.659436
 C        -3.064073        -0.624115         0.470238
 C        -1.815987        -1.288553         0.967481
 C        -0.549304        -1.257041         0.287836
 C        -0.248491         0.075737        -0.356111
 O         0.664202         0.305138        -1.144107
 O        -1.133832         1.115015        -0.225264
 C        -1.641606         1.322352         1.183712
 H        -3.223741         1.398186         2.957303
 H        -4.188984        -0.086207         2.739489
 H        -2.788971        -0.064417         3.960207
 H        -3.983167        -1.253618         0.535556
 H        -3.071744        -0.203824        -0.549781
 H        -1.898393        -2.186316         1.612228
 H         0.253042        -1.533560         0.855358
 H        -0.513664        -1.918630        -0.556512
 H        -0.849368         1.418352         1.920144
 H        -2.353074         2.078641         1.008278
