19
Iteration:  1956
 C        -3.267864         0.213358         2.858721
 C        -2.439411         0.131749         1.574147
 C        -3.192228        -0.800414         0.537882
 C        -1.854063        -1.161659         1.193834
 C        -0.650516        -1.161839         0.260296
 C        -0.177254         0.111566        -0.451835
 O         0.721396         0.279449        -1.264339
 O        -0.999441         1.138694        -0.142264
 C        -1.559449         1.297339         1.191935
 H        -4.184725         0.891192         2.860909
 H        -3.661009        -0.779317         3.141239
 H        -2.622268         0.437522         3.731778
 H        -4.190923        -1.203781         0.866244
 H        -3.266980        -0.421242        -0.457481
 H        -1.691862        -2.061808         1.831298
 H         0.196368        -1.740194         0.857238
 H        -0.749346        -1.904683        -0.608627
 H        -0.684052         1.225104         1.888281
 H        -1.767290         2.350772         1.295477
