19
Iteration:  1622
 C        -3.339124         0.443127         2.820438
 C        -2.460123         0.017195         1.586893
 C        -3.007997        -0.707860         0.311711
 C        -1.770788        -1.310740         1.265862
 C        -0.451255        -1.210435         0.374397
 C        -0.251510         0.088751        -0.419529
 O         0.429798         0.230374        -1.405541
 O        -0.943117         1.178578        -0.015236
 C        -1.595153         1.229357         1.278964
 H        -4.189959         1.023025         2.473117
 H        -3.710641        -0.462485         3.331499
 H        -2.700241         1.068762         3.507906
 H        -4.048283        -0.898455         0.573823
 H        -2.748679        -0.318165        -0.693768
 H        -1.795137        -2.291686         1.721486
 H         0.496740        -1.504137         1.047357
 H        -0.507117        -1.995367        -0.430977
 H        -0.755356         1.081229         2.005166
 H        -2.084631         2.198418         1.455205
