19
Iteration:  2275charge 0 multiplicity 1
 C        -3.128492         0.070437         2.852840
 C        -2.485768         0.128442         1.484497
 C        -3.167142        -0.735162         0.438177
 C        -1.842554        -1.185520         1.206969
 C        -0.630995        -1.095228         0.397355
 C        -0.276083         0.125904        -0.435519
 O         0.628265         0.192112        -1.253527
 O        -0.935521         1.273407        -0.164596
 C        -1.600737         1.259737         1.194627
 H        -3.496888         1.057280         3.112464
 H        -4.055658        -0.567720         2.841486
 H        -2.599850        -0.288927         3.746498
 H        -4.050715        -1.212046         0.699740
 H        -2.825436        -0.635200        -0.574333
 H        -1.805312        -1.793934         2.121958
 H         0.202697        -1.389357         1.063153
 H        -0.784224        -2.011074        -0.258354
 H        -0.785214         1.372104         1.991030
 H        -2.065242         2.243136         1.155819
