19
Iteration:  4286charge 0 multiplicity 1
 C        -3.139503         0.013919         2.917997
 C        -2.402153         0.167284         1.569152
 C        -3.121022        -0.305615         0.273874
 C        -2.115469        -1.177167         0.943243
 C        -0.763594        -1.352576         0.140862
 C        -0.206370         0.010157        -0.368396
 O         0.608168         0.128624        -1.263679
 O        -0.785333         1.195271         0.081023
 C        -1.458488         1.345444         1.402201
 H        -3.991532        -0.669197         3.012727
 H        -2.440634        -0.371114         3.744945
 H        -3.515427         0.898043         3.443703
 H        -4.172907        -0.420426         0.309372
 H        -2.850726         0.223969        -0.566896
 H        -2.389518        -2.054878         1.514059
 H        -0.034608        -1.734485         0.844253
 H        -0.881851        -2.040332        -0.677600
 H        -0.889312         1.551785         2.329889
 H        -2.272654         2.056057         1.305686
