19
Iteration:  2220charge 0 multiplicity 1
 C        -3.155168         0.213160         2.836987
 C        -2.418745        -0.007109         1.554712
 C        -3.005905        -0.594267         0.326786
 C        -1.833917        -1.291186         1.071677
 C        -0.494539        -1.158279         0.439702
 C        -0.241120         0.086958        -0.335183
 O         0.311680         0.144135        -1.410022
 O        -0.747646         1.236181         0.155497
 C        -1.764642         1.334547         1.124037
 H        -4.173632         0.630324         2.782954
 H        -3.145347        -0.679479         3.506123
 H        -2.660743         0.933925         3.520878
 H        -4.015571        -1.084973         0.399163
 H        -3.038372         0.007700        -0.547017
 H        -2.088517        -2.343260         1.302034
 H         0.217750        -0.993329         1.246054
 H        -0.094380        -2.135532         0.014364
 H        -1.274485         1.815992         1.979038
 H        -2.544029         1.794055         0.531658
