19
Iteration:  3043
 C        -3.088221         0.157968         2.937159
 C        -2.466868         0.039491         1.515768
 C        -2.955541        -0.605213         0.199757
 C        -1.885948        -1.298021         1.024194
 C        -0.445387        -1.300053         0.510704
 C        -0.276507         0.129187        -0.312326
 O         0.394820         0.158981        -1.317815
 O        -0.970085         1.296511        -0.009987
 C        -1.710137         1.384607         1.190176
 H        -4.133120         0.117734         2.965219
 H        -2.573057        -0.649893         3.475357
 H        -2.723756         1.119250         3.432103
 H        -3.983158        -1.049536         0.227771
 H        -2.755539        -0.214079        -0.773914
 H        -2.058819        -2.133719         1.771006
 H         0.280069        -1.262711         1.388093
 H        -0.162766        -2.072480        -0.185792
 H        -1.071769         1.732430         2.056707
 H        -2.442206         2.069074         0.985212
