19
Iteration:   744
 C        -2.849408         0.300227         2.945332
 C        -2.525381         0.123846         1.450682
 C        -3.387226        -0.859123         0.655296
 C        -1.932659        -1.282147         1.062661
 C        -0.887598        -1.282839        -0.077366
 C        -0.145548         0.096447        -0.355573
 O         0.838120         0.264859        -0.996987
 O        -0.638172         1.233785         0.219963
 C        -1.926667         1.355519         0.796926
 H        -3.980822         0.653113         3.040989
 H        -2.680233        -0.531600         3.709921
 H        -2.154696         1.119203         3.386347
 H        -4.241762        -1.319309         1.072560
 H        -3.434486        -0.664301        -0.386029
 H        -1.714121        -1.984414         1.838740
 H        -0.036932        -1.925594         0.256750
 H        -1.379362        -1.692829        -0.953768
 H        -1.850079         2.169011         1.590595
 H        -2.615640         1.815547         0.043337
