19
Iteration:  1434charge 0 multiplicity 1
 C        -3.261830         0.273273         2.865689
 C        -2.419600         0.074546         1.549917
 C        -3.111465        -0.706261         0.430829
 C        -1.855865        -1.274199         1.156781
 C        -0.566976        -1.211037         0.339043
 C        -0.225523         0.111637        -0.376136
 O         0.500085         0.040548        -1.361832
 O        -0.816297         1.391971        -0.048010
 C        -1.612837         1.263229         1.200537
 H        -4.275443         0.750747         2.822777
 H        -3.450291        -0.650161         3.444756
 H        -2.685838         1.010072         3.468539
 H        -4.062926        -1.100315         0.702654
 H        -2.968826        -0.417286        -0.612658
 H        -2.048659        -2.103487         1.840630
 H         0.259877        -1.436708         0.974626
 H        -0.469453        -1.990523        -0.448182
 H        -0.997135         1.617291         2.127429
 H        -2.350562         2.064390         1.117186
