19
Iteration:  3524charge 0 multiplicity 1
 C        -3.032771         0.153143         2.800738
 C        -2.445937         0.156318         1.442854
 C        -3.259561        -0.457161         0.338507
 C        -2.090210        -1.186405         0.902319
 C        -0.808060        -1.209507         0.198668
 C        -0.297483         0.083561        -0.315507
 O         0.508320        -0.010592        -1.220992
 O        -0.662179         1.346418         0.132010
 C        -1.381725         1.172734         1.388630
 H        -3.889876         0.784384         3.008758
 H        -3.193822        -0.951116         3.037883
 H        -2.286334         0.418216         3.620501
 H        -4.341499        -0.761782         0.645058
 H        -3.198564         0.020413        -0.615432
 H        -2.311012        -2.146838         1.375606
 H        -0.020911        -1.637299         0.948455
 H        -0.775018        -1.849433        -0.690802
 H        -0.629133         1.050783         2.292357
 H        -1.862317         2.188826         1.613216
