19
Iteration:  3367
 C        -3.265403         0.218285         2.910813
 C        -2.458816         0.063908         1.595512
 C        -2.911424        -0.366281         0.293820
 C        -2.004721        -1.292005         0.958490
 C        -0.590894        -1.275572         0.353706
 C        -0.239268         0.024793        -0.416873
 O         0.340232         0.153870        -1.520205
 O        -0.698445         1.191817         0.224974
 C        -1.555840         1.250391         1.364821
 H        -3.199651        -0.711567         3.558657
 H        -2.845780         1.034677         3.528371
 H        -4.296245         0.272868         2.623929
 H        -4.024238        -0.532648         0.245518
 H        -2.597766         0.156239        -0.551666
 H        -2.311228        -2.356893         1.183753
 H         0.294535        -1.304947         1.104777
 H        -0.417916        -2.200119        -0.280417
 H        -1.032612         1.524840         2.387081
 H        -2.282099         2.139659         1.086031
