19
Iteration:   929
 C        -2.157368         0.473660         2.917446
 C        -2.454853         0.051082         1.401347
 C        -3.418248        -1.069901         0.932417
 C        -1.920521        -1.255829         0.749479
 C        -1.164823        -1.038539        -0.622769
 C        -0.212589         0.163802        -0.243069
 O         0.962449         0.065324        -0.063959
 O        -0.837098         1.323109         0.084552
 C        -2.267736         1.215518         0.475944
 H        -3.025454         0.998295         3.278722
 H        -1.871665        -0.291827         3.615580
 H        -1.336082         1.130167         2.868815
 H        -3.960840        -1.644398         1.658622
 H        -4.034553        -0.754310         0.107213
 H        -1.355686        -1.844154         1.394650
 H        -0.721999        -2.065533        -0.871853
 H        -1.951471        -0.780682        -1.417734
 H        -2.458811         2.199638         1.087704
 H        -2.882755         1.394072        -0.449940
