19
Iteration:  3181
 C        -3.130543         0.047871         2.913181
 C        -2.509339         0.149264         1.555313
 C        -3.260946        -0.651183         0.476195
 C        -1.989554        -1.212335         0.976988
 C        -0.569610        -1.230092         0.312729
 C        -0.203561         0.059850        -0.430931
 O         0.627132         0.149118        -1.347604
 O        -0.719664         1.322865         0.050633
 C        -1.708024         1.355306         1.208970
 H        -2.446601         0.325681         3.811662
 H        -4.038100         0.718031         2.939952
 H        -3.478720        -0.956391         3.200350
 H        -4.187108        -1.193484         0.652001
 H        -3.148576        -0.234591        -0.540771
 H        -1.960569        -2.039141         1.671873
 H         0.131189        -1.225053         1.117014
 H        -0.297259        -2.106102        -0.334546
 H        -1.041311         1.678824         1.998874
 H        -2.349626         2.298859         0.967373
