19
Iteration:  1928
 C        -3.104077         0.194341         2.959527
 C        -2.418005         0.119998         1.561585
 C        -3.090481        -0.681287         0.370640
 C        -1.825817        -1.273531         1.090958
 C        -0.588988        -1.243836         0.288228
 C        -0.295018         0.084851        -0.387407
 O         0.639833         0.163976        -1.170457
 O        -0.980041         1.220987        -0.098283
 C        -1.767202         1.366202         1.111965
 H        -3.587774         1.139147         3.072327
 H        -3.778228        -0.623998         3.244293
 H        -2.300361         0.157925         3.717147
 H        -4.116788        -0.989272         0.573583
 H        -2.908432        -0.130077        -0.578733
 H        -1.826829        -2.011390         1.897549
 H         0.217856        -1.460300         0.910325
 H        -0.508330        -1.947535        -0.520220
 H        -1.053248         1.650316         1.911683
 H        -2.383301         2.290465         1.009639
