19
Iteration:   868charge 0 multiplicity 1
 C        -2.143555         0.168574         2.872589
 C        -2.505187         0.051887         1.444878
 C        -3.556759        -0.906953         0.832012
 C        -2.033777        -1.202268         0.915161
 C        -1.069579        -1.051892        -0.216283
 C        -0.232430         0.254317        -0.242825
 O         1.003265         0.156147        -0.335327
 O        -0.781538         1.379940         0.021258
 C        -2.218923         1.200758         0.393355
 H        -2.954827         0.333284         3.652685
 H        -2.084552        -0.934360         3.199481
 H        -1.173592         0.792336         3.080077
 H        -4.189213        -1.407878         1.538903
 H        -3.929050        -0.617641        -0.251132
 H        -1.753671        -1.925638         1.754682
 H        -0.410024        -1.884899        -0.049656
 H        -1.453725        -1.244354        -1.177985
 H        -2.421377         2.165451         0.720729
 H        -2.804015         1.023508        -0.508349
