19
Iteration:  2913charge 0 multiplicity 1
 C        -3.313066         0.188369         2.816475
 C        -2.482766         0.019992         1.518050
 C        -3.035957        -0.724672         0.326619
 C        -1.825221        -1.224288         1.113007
 C        -0.407094        -0.954923         0.584016
 C        -0.208387         0.125069        -0.408073
 O         0.352036         0.111541        -1.503593
 O        -0.925675         1.207754        -0.012945
 C        -1.527590         1.270668         1.322338
 H        -3.776827         1.102744         3.069288
 H        -4.201767        -0.470837         2.863036
 H        -2.666266        -0.202681         3.681383
 H        -3.878108        -1.411084         0.474663
 H        -2.874736        -0.282748        -0.664770
 H        -1.944270        -2.294769         1.483375
 H         0.195632        -0.670863         1.415047
 H         0.058307        -1.770710         0.111832
 H        -0.753097         1.356515         2.143876
 H        -2.148743         2.171579         1.293283
