19
Iteration:  3790charge 0 multiplicity 1
 C        -3.231877         0.091869         2.827519
 C        -2.384418         0.208098         1.562028
 C        -3.061690        -0.329426         0.193949
 C        -2.090993        -1.077186         0.945091
 C        -0.675941        -1.311921         0.320417
 C        -0.251089        -0.005590        -0.351358
 O         0.333931         0.028929        -1.398319
 O        -0.709892         1.221498         0.172109
 C        -1.315011         1.250750         1.471136
 H        -4.214133        -0.470629         2.751645
 H        -2.652123        -0.558373         3.483205
 H        -3.465617         0.997262         3.427103
 H        -4.146510        -0.653487         0.261128
 H        -2.970816         0.304841        -0.661803
 H        -2.384211        -2.085895         1.403272
 H         0.244713        -1.686358         0.946391
 H        -0.781850        -2.140623        -0.472581
 H        -0.494516         1.191620         2.306435
 H        -1.749097         2.215994         1.436059
