19
Iteration:  1602charge 0 multiplicity 1
 C        -3.301305         0.279486         2.792174
 C        -2.383730         0.081034         1.663385
 C        -2.994835        -0.635483         0.487776
 C        -1.837964        -1.239019         1.132615
 C        -0.536110        -1.277865         0.392787
 C        -0.251502         0.044316        -0.451950
 O         0.480490         0.217640        -1.381941
 O        -0.915426         1.191434        -0.015564
 C        -1.587564         1.296362         1.182521
 H        -4.192454         0.807106         2.423765
 H        -3.663911        -0.691625         3.259713
 H        -2.849026         0.921740         3.600000
 H        -3.920844        -1.243958         0.518701
 H        -2.776512        -0.099814        -0.496242
 H        -2.053608        -2.098015         1.756479
 H         0.323659        -1.378889         1.126458
 H        -0.421789        -2.079368        -0.324419
 H        -1.047406         1.796384         2.089971
 H        -2.482310         1.972384         0.898460
