19
Iteration:   989
 C        -2.500910         0.410098         2.943680
 C        -2.521862         0.150939         1.393376
 C        -3.322338        -1.168117         0.993956
 C        -1.899033        -1.139510         0.826704
 C        -1.151546        -1.041480        -0.512819
 C        -0.153217         0.107023        -0.301854
 O         1.015597         0.127472        -0.410873
 O        -0.788035         1.229923         0.203490
 C        -2.159248         1.326749         0.509733
 H        -2.644046         1.526176         3.062270
 H        -3.258551        -0.194586         3.542778
 H        -1.401039         0.353164         3.360234
 H        -3.676506        -1.788286         1.894285
 H        -4.027417        -1.087397         0.162439
 H        -1.375159        -1.898677         1.532600
 H        -0.718035        -1.976639        -0.724720
 H        -1.842263        -0.819412        -1.284759
 H        -2.298211         2.275999         0.917887
 H        -2.645724         1.181574        -0.455977
