19
Iteration:  2381
 C        -2.904787         0.040865         2.882261
 C        -2.484862         0.094450         1.438147
 C        -3.196013        -0.715968         0.493132
 C        -1.935440        -1.243875         1.116622
 C        -0.625483        -1.084340         0.335206
 C        -0.264459         0.163091        -0.364137
 O         0.676123         0.032220        -1.115216
 O        -0.912517         1.337188        -0.170316
 C        -1.823150         1.431389         1.138325
 H        -3.860977         0.654933         2.976569
 H        -3.050852        -1.028605         3.032696
 H        -2.014115         0.376671         3.386603
 H        -4.156701        -1.132852         0.676904
 H        -3.109858        -0.561933        -0.601496
 H        -1.994947        -1.985729         1.891541
 H         0.193663        -1.223414         1.112195
 H        -0.555749        -1.959466        -0.290216
 H        -1.081422         1.504896         1.875853
 H        -2.539227         2.261160         0.918484
