19
Iteration:  2099charge 0 multiplicity 1
 C        -3.296158         0.183852         2.847577
 C        -2.517961         0.092063         1.482436
 C        -2.882609        -0.692422         0.253016
 C        -1.779263        -1.196157         1.049687
 C        -0.315145        -1.067881         0.623049
 C        -0.260746         0.136509        -0.340310
 O         0.236652         0.051852        -1.474779
 O        -0.968049         1.219820         0.006476
 C        -1.556921         1.286856         1.300986
 H        -3.586342         1.232013         3.174747
 H        -4.324238        -0.263597         2.913935
 H        -2.660905        -0.266907         3.638290
 H        -3.825559        -1.128779         0.482646
 H        -2.943467        -0.330077        -0.798797
 H        -2.110358        -2.021458         1.609675
 H         0.269462        -1.204680         1.486054
 H         0.074795        -1.894480        -0.043334
 H        -0.697141         1.349956         2.079982
 H        -1.961283         2.303378         1.229335
