19
Iteration:  4739charge 0 multiplicity 1
 C        -3.266794         0.055297         2.912418
 C        -2.513167         0.149914         1.556859
 C        -3.092334        -0.378364         0.351496
 C        -2.008294        -1.204325         1.003532
 C        -0.762794        -1.260895         0.209380
 C        -0.286617         0.063501        -0.405426
 O         0.495946         0.102737        -1.345447
 O        -0.691252         1.229611         0.072973
 C        -1.343967         1.266847         1.386284
 H        -3.910755         0.879429         2.836237
 H        -3.758956        -0.890325         3.001461
 H        -2.589200         0.147281         3.717560
 H        -4.184182        -0.690239         0.356419
 H        -2.691791         0.024892        -0.593804
 H        -2.278428        -1.936907         1.824129
 H         0.161004        -1.514804         0.809840
 H        -0.693068        -1.922802        -0.665976
 H        -0.701154         1.021247         2.257423
 H        -1.701881         2.300337         1.526619
