19
Iteration:  2733
 C        -2.994972         0.227376         2.993840
 C        -2.463283         0.059908         1.666318
 C        -3.157956        -0.565793         0.388270
 C        -1.919749        -1.180452         0.948546
 C        -0.534086        -1.282964         0.302874
 C        -0.154641         0.055486        -0.375298
 O         0.717168         0.285959        -1.188211
 O        -1.051516         1.087614        -0.026342
 C        -1.832487         1.271515         1.031024
 H        -3.636031         1.144125         3.314954
 H        -3.465914        -0.725749         3.296372
 H        -2.141554         0.416284         3.660940
 H        -4.002858        -1.153585         0.313660
 H        -3.228323         0.075971        -0.522597
 H        -2.111202        -2.066919         1.556858
 H         0.185765        -1.395543         1.129433
 H        -0.402041        -2.137275        -0.434183
 H        -1.263386         1.880941         1.782693
 H        -2.659162         1.999313         0.755084
