19
Iteration:   443
 C        -3.326329         0.297498         2.906963
 C        -2.482740         0.048495         1.635473
 C        -3.109503        -0.561610         0.413829
 C        -1.868330        -1.229992         1.021525
 C        -0.497892        -1.201630         0.306991
 C        -0.212675         0.091230        -0.450966
 O         0.571938         0.142778        -1.360984
 O        -0.910574         1.193229         0.000443
 C        -1.541722         1.202172         1.332289
 H        -4.038146        -0.460408         2.766700
 H        -2.905142         0.406615         3.907139
 H        -3.843381         1.209849         2.664585
 H        -4.035384        -1.159585         0.582773
 H        -2.979920         0.048589        -0.513633
 H        -2.064922        -2.147178         1.491851
 H         0.295716        -1.505183         0.895963
 H        -0.544613        -1.975411        -0.473208
 H        -0.751936         1.278275         2.035817
 H        -2.003171         2.210376         1.303830
