19
Iteration:  3558
 C        -3.210060         0.285618         3.004883
 C        -2.471306         0.081524         1.641643
 C        -3.152034        -0.305911         0.344539
 C        -2.112859        -1.202629         0.872930
 C        -0.739429        -1.263926         0.188999
 C        -0.186835        -0.020861        -0.484635
 O         0.665869         0.208499        -1.376919
 O        -0.763939         1.070873         0.107417
 C        -1.437311         1.142488         1.429628
 H        -4.291150         0.463929         3.087774
 H        -3.055494        -0.725706         3.494483
 H        -2.571657         1.017537         3.621833
 H        -4.305426        -0.518304         0.424964
 H        -2.933050         0.328306        -0.521222
 H        -2.688210        -2.107417         1.026865
 H        -0.014851        -1.667270         0.999032
 H        -0.757743        -2.119863        -0.533273
 H        -0.764138         1.287150         2.389295
 H        -2.082802         2.010759         1.230283
