19
Iteration:  3892charge 0 multiplicity 1
 C        -3.158730         0.194027         2.933445
 C        -2.432592         0.184708         1.531582
 C        -3.140069        -0.385011         0.270290
 C        -2.107068        -1.236409         0.939665
 C        -0.830375        -1.294967         0.137487
 C        -0.308548         0.056239        -0.388178
 O         0.551449         0.098616        -1.232575
 O        -0.712803         1.214590         0.101452
 C        -1.323658         1.178880         1.380894
 H        -3.619545        -0.720061         3.280584
 H        -2.390212         0.390224         3.756391
 H        -3.916563         0.972649         3.130608
 H        -4.231069        -0.538912         0.308423
 H        -2.823350         0.187994        -0.610249
 H        -2.279839        -2.131695         1.454048
 H        -0.027006        -1.662457         0.891230
 H        -0.838713        -1.950656        -0.716877
 H        -0.561626         1.033783         2.187435
 H        -1.876844         2.075643         1.639344
