19
Iteration:   512
 C        -3.378335         0.197474         2.774833
 C        -2.441974         0.075147         1.529850
 C        -2.951305        -0.573725         0.178231
 C        -1.789432        -1.167109         0.921544
 C        -0.292575        -1.102489         0.596534
 C        -0.217263         0.061865        -0.343653
 O        -0.041861        -0.072092        -1.519026
 O        -0.642240         1.280966         0.226038
 C        -1.575077         1.279857         1.376090
 H        -4.369296         0.560546         2.275389
 H        -3.497436        -0.613090         3.460214
 H        -2.956343         0.931696         3.413041
 H        -3.890361        -1.126193         0.231416
 H        -2.646151         0.005139        -0.696721
 H        -2.128281        -2.102673         1.500112
 H         0.391722        -1.008890         1.417745
 H         0.116758        -1.933559         0.001825
 H        -0.990450         1.463211         2.284487
 H        -2.103160         2.259948         1.282990
