19
Iteration:    90charge 0 multiplicity 1
 C        -3.388715         0.264230         2.632044
 C        -2.460887         0.109474         1.445674
 C        -2.979608        -0.537706         0.120089
 C        -1.935606        -1.261274         1.014939
 C        -0.493310        -1.130276         0.487457
 C        -0.281407         0.147447        -0.302388
 O        -0.061568         0.036097        -1.518935
 O        -0.443237         1.308095         0.356601
 C        -1.333254         1.115764         1.507938
 H        -4.264648        -0.247904         2.555723
 H        -2.863970        -0.166364         3.520143
 H        -3.626892         1.323470         2.859714
 H        -3.958444        -0.925080         0.339669
 H        -2.822736        -0.294300        -0.918551
 H        -2.290414        -2.327543         1.368844
 H         0.354965        -1.328607         1.155695
 H        -0.351065        -1.916400        -0.215748
 H        -0.668561         0.809643         2.276411
 H        -1.724369         2.116304         1.676076
