19
Iteration:  1294
 C        -3.337771         0.386821         2.868866
 C        -2.442691         0.063022         1.584112
 C        -2.995833        -0.680867         0.401749
 C        -1.814114        -1.295015         1.090221
 C        -0.487129        -1.192621         0.379132
 C        -0.275272         0.064146        -0.471606
 O         0.477416         0.111200        -1.385902
 O        -0.946009         1.238637        -0.024018
 C        -1.545923         1.237608         1.306009
 H        -3.831920         1.347604         2.807016
 H        -4.132955        -0.339953         3.063376
 H        -2.683740         0.479253         3.754610
 H        -4.017355        -1.102085         0.628158
 H        -2.892166        -0.236696        -0.544475
 H        -2.123404        -2.248538         1.536573
 H         0.293684        -0.970796         1.225996
 H        -0.099143        -2.077301        -0.241163
 H        -0.811257         1.414989         2.069285
 H        -2.183523         2.171481         1.237063
