19
Iteration:  3502charge 0 multiplicity 1
 C        -3.157347         0.037678         2.898130
 C        -2.430349         0.128514         1.519263
 C        -3.250331        -0.453562         0.333538
 C        -2.133532        -1.212140         1.008769
 C        -0.827156        -1.212940         0.187489
 C        -0.286588         0.080301        -0.444369
 O         0.600920         0.043422        -1.323675
 O        -0.615931         1.284938         0.139816
 C        -1.377462         1.323264         1.353830
 H        -3.474585         1.051488         3.159905
 H        -4.001792        -0.738314         3.013058
 H        -2.439085        -0.241605         3.754151
 H        -4.374234        -0.543636         0.498285
 H        -2.994828        -0.182825        -0.696658
 H        -2.466267        -2.047767         1.621663
 H        -0.025307        -1.417262         1.003253
 H        -0.703274        -1.993129        -0.561117
 H        -0.701750         1.214723         2.303736
 H        -1.779463         2.389996         1.448483
