19
Iteration:   391charge 0 multiplicity 1
 C        -2.877536         0.097643         2.954800
 C        -2.547125         0.125053         1.445761
 C        -3.308745        -0.691058         0.396706
 C        -2.003235        -1.121367         0.969864
 C        -0.714680        -1.244423         0.177311
 C        -0.196022         0.053746        -0.273733
 O         0.736021         0.056127        -1.099466
 O        -0.780963         1.333873         0.010471
 C        -1.774051         1.413735         1.127762
 H        -2.353828        -0.792065         3.542285
 H        -2.661904         1.091086         3.216891
 H        -3.913695         0.021833         3.172312
 H        -4.204095        -1.218913         0.796871
 H        -3.351307        -0.313268        -0.666320
 H        -2.159416        -1.825512         1.736493
 H         0.025224        -1.685604         0.881407
 H        -0.732861        -1.986219        -0.683150
 H        -1.188426         1.710196         2.009554
 H        -2.438169         2.200264         0.725881
