19
Iteration:  3086charge 0 multiplicity 1
 C        -3.218264         0.103049         2.903144
 C        -2.519670         0.080683         1.550752
 C        -3.281173        -0.645318         0.526558
 C        -1.887269        -1.219734         1.061508
 C        -0.422950        -1.180449         0.321694
 C        -0.170820         0.093609        -0.414330
 O         0.691073         0.207188        -1.296418
 O        -1.013598         1.286294        -0.175294
 C        -1.602029         1.273948         1.230114
 H        -3.982440        -0.610193         3.035474
 H        -2.489453        -0.036156         3.740716
 H        -3.802084         1.052929         3.173064
 H        -4.258710        -1.050186         0.774548
 H        -3.245730        -0.300007        -0.499181
 H        -2.086964        -2.146076         1.688074
 H         0.351175        -1.134792         1.233920
 H        -0.245260        -2.081520        -0.264297
 H        -0.706374         1.118949         1.953618
 H        -1.910278         2.266052         1.431623
