19
Iteration:  2638charge 0 multiplicity 1
 C        -3.376488         0.342382         2.819107
 C        -2.331711        -0.026461         1.688427
 C        -3.012588        -0.613731         0.445994
 C        -1.809155        -1.294622         1.117860
 C        -0.472468        -1.200538         0.346785
 C        -0.158917         0.143063        -0.377321
 O         0.443991         0.226498        -1.433411
 O        -0.922479         1.143858        -0.007900
 C        -1.651335         1.213629         1.259240
 H        -3.797140         1.345753         2.754970
 H        -4.298937        -0.260568         2.972718
 H        -2.926553         0.410328         3.877947
 H        -4.076763        -0.966951         0.414466
 H        -2.746019        -0.202761        -0.632758
 H        -1.978361        -2.197372         1.657087
 H         0.471894        -1.484869         0.917476
 H        -0.512130        -1.867464        -0.542197
 H        -1.010439         1.772908         1.978710
 H        -2.475896         1.794072         0.948865
