19
Iteration:   488charge 0 multiplicity 1
 C        -3.317961         0.193664         2.672026
 C        -2.430273         0.106923         1.492188
 C        -2.929840        -0.628485         0.220378
 C        -1.919757        -1.268124         1.161418
 C        -0.497111        -1.110007         0.633910
 C        -0.377534         0.084254        -0.390599
 O         0.192478         0.084469        -1.505883
 O        -0.765331         1.307208         0.087748
 C        -1.377560         1.217308         1.394120
 H        -4.407408         0.100728         2.455424
 H        -2.976253        -0.609284         3.314781
 H        -3.092670         0.993132         3.333121
 H        -3.965141        -0.984153         0.210014
 H        -2.447165        -0.224041        -0.734848
 H        -2.298644        -2.122115         1.701536
 H         0.253025        -0.883038         1.298616
 H        -0.093094        -1.988896         0.088814
 H        -0.582678         1.111855         2.121981
 H        -1.797087         2.231413         1.579992
