19
Iteration:  2376charge 0 multiplicity 1
 C        -2.902978         0.080626         2.889579
 C        -2.512794         0.118939         1.421109
 C        -3.215592        -0.740193         0.488324
 C        -1.926031        -1.258243         1.064843
 C        -0.617642        -1.071252         0.380102
 C        -0.279932         0.163830        -0.381373
 O         0.682826         0.036280        -1.093519
 O        -0.928629         1.336124        -0.163793
 C        -1.785637         1.395676         1.119384
 H        -3.811030         0.615127         3.151016
 H        -3.179495        -0.976322         3.059160
 H        -1.954848         0.310497         3.460826
 H        -4.164734        -1.360656         0.756760
 H        -3.196841        -0.578491        -0.585098
 H        -1.967077        -2.008851         1.877511
 H         0.162106        -1.288360         1.077383
 H        -0.486450        -1.796021        -0.478415
 H        -0.949902         1.601966         1.906215
 H        -2.396149         2.294275         0.992053
