19
Iteration:  3278charge 0 multiplicity 1
 C        -3.360358         0.186454         2.825356
 C        -2.420098         0.046663         1.605149
 C        -3.123541        -0.479918         0.351761
 C        -1.950972        -1.228418         0.982188
 C        -0.443587        -1.187826         0.389347
 C        -0.237848         0.110861        -0.430382
 O         0.443531         0.100928        -1.464333
 O        -0.846467         1.272717         0.084246
 C        -1.446057         1.174957         1.446753
 H        -4.478409         0.418060         2.794650
 H        -3.263081        -0.692736         3.475440
 H        -3.004415         1.015076         3.408005
 H        -4.089373        -0.894861         0.408008
 H        -2.849781        -0.069535        -0.676665
 H        -2.282283        -2.189961         1.364556
 H         0.348429        -1.392940         1.148874
 H        -0.412004        -1.963690        -0.453814
 H        -0.599183         1.174807         2.131122
 H        -1.896159         2.183001         1.323434
