19
Iteration:  4291charge 0 multiplicity 1
 C        -3.134747         0.015802         2.956392
 C        -2.426200         0.157081         1.579706
 C        -3.132689        -0.326490         0.301497
 C        -2.089151        -1.199091         0.902656
 C        -0.791082        -1.316178         0.176116
 C        -0.222208         0.046711        -0.367940
 O         0.625387         0.130903        -1.277675
 O        -0.758645         1.158534         0.082908
 C        -1.429387         1.371385         1.369260
 H        -4.074823        -0.596580         2.860849
 H        -2.596436        -0.568432         3.683535
 H        -3.507774         0.979129         3.379512
 H        -4.244609        -0.482847         0.409901
 H        -3.002644         0.235032        -0.727870
 H        -2.493134        -2.118713         1.376151
 H         0.021246        -1.627153         0.887308
 H        -0.872869        -2.102503        -0.623415
 H        -0.873588         1.579065         2.290558
 H        -2.266681         2.120128         1.454056
