19
Iteration:  1462charge 0 multiplicity 1
 C        -3.277344         0.146263         2.772460
 C        -2.447388         0.202541         1.493479
 C        -3.155598        -0.768875         0.491312
 C        -1.836831        -1.133679         1.239464
 C        -0.620906        -1.139747         0.308213
 C        -0.245663         0.040298        -0.400076
 O         0.575338         0.139636        -1.263198
 O        -0.983580         1.214662        -0.109119
 C        -1.405885         1.324485         1.208674
 H        -4.116826         0.818784         2.913869
 H        -3.651419        -0.862343         2.979851
 H        -2.646646         0.420752         3.619392
 H        -4.222135        -1.081540         0.796436
 H        -3.186733        -0.381509        -0.534439
 H        -1.887864        -1.908629         1.997673
 H         0.359625        -1.347506         0.956066
 H        -0.593576        -1.963865        -0.392509
 H        -0.614708         1.253089         1.901512
 H        -1.796522         2.369002         1.237420
