19
Iteration:  1468
 C        -3.299409         0.153936         2.804020
 C        -2.442787         0.215719         1.497189
 C        -3.141725        -0.684144         0.517746
 C        -1.846532        -1.102025         1.202321
 C        -0.591689        -1.175059         0.334217
 C        -0.274795         0.056606        -0.456350
 O         0.597455         0.167852        -1.238974
 O        -0.984988         1.179341        -0.120048
 C        -1.456026         1.239519         1.204484
 H        -4.057029         0.966960         2.892394
 H        -3.690051        -0.856457         3.021312
 H        -2.522738         0.225621         3.632283
 H        -4.077644        -1.060500         0.769946
 H        -3.026433        -0.569098        -0.574013
 H        -1.780552        -1.859611         2.011125
 H         0.295028        -1.171652         0.878171
 H        -0.641821        -2.075904        -0.319558
 H        -0.544279         1.188366         1.944782
 H        -1.885124         2.244875         1.125762
