19
Iteration:  1970
 C        -3.287390         0.228697         2.874535
 C        -2.507540         0.108964         1.568637
 C        -3.212226        -0.732408         0.618143
 C        -1.863749        -1.304945         1.113627
 C        -0.579698        -1.135920         0.235323
 C        -0.126604         0.187678        -0.349938
 O         0.678120         0.223867        -1.285148
 O        -1.021185         1.213738        -0.179487
 C        -1.452298         1.204438         1.199592
 H        -4.074107         0.817091         2.473653
 H        -3.654177        -0.740143         3.222494
 H        -2.873753         0.855041         3.664344
 H        -4.082916        -1.163595         1.108322
 H        -3.117266        -0.637444        -0.469292
 H        -1.971709        -1.823944         1.995191
 H         0.379136        -1.528146         0.712420
 H        -0.811847        -1.712382        -0.719364
 H        -0.620189         1.216374         1.911510
 H        -2.089233         2.078747         1.296971
