19
Iteration:  1609charge 0 multiplicity 1
 C        -3.323303         0.301181         2.803620
 C        -2.381037         0.014946         1.626633
 C        -2.994510        -0.596884         0.448528
 C        -1.806320        -1.258906         1.180675
 C        -0.527304        -1.258763         0.406415
 C        -0.267284         0.031233        -0.412395
 O         0.450137         0.275033        -1.384634
 O        -0.884350         1.175128        -0.072262
 C        -1.610991         1.248906         1.242001
 H        -4.117843         0.896581         2.340255
 H        -3.777892        -0.432418         3.455460
 H        -2.840493         0.999444         3.515341
 H        -3.882958        -1.238474         0.423223
 H        -2.787206        -0.294105        -0.534626
 H        -2.183285        -2.065228         1.839940
 H         0.505600        -1.360615         0.971957
 H        -0.590211        -2.159735        -0.296248
 H        -0.909433         1.687056         1.954854
 H        -2.300607         2.021023         0.979512
