19
Iteration:  3183
 C        -3.146518         0.046008         2.932886
 C        -2.507554         0.142814         1.548932
 C        -3.274085        -0.660138         0.478337
 C        -1.977523        -1.208163         0.972121
 C        -0.569121        -1.230189         0.306208
 C        -0.196009         0.060293        -0.433649
 O         0.627031         0.144022        -1.351530
 O        -0.707421         1.322043         0.041944
 C        -1.706495         1.380243         1.217933
 H        -2.508471         0.340790         3.764227
 H        -4.074196         0.677971         2.950037
 H        -3.417788        -0.981144         3.206979
 H        -4.152106        -1.173150         0.673889
 H        -3.239788        -0.240074        -0.567155
 H        -1.999609        -2.082733         1.667933
 H         0.078827        -1.180450         1.188943
 H        -0.276583        -2.070665        -0.319797
 H        -1.004593         1.629507         2.005743
 H        -2.346853         2.295281         0.990196
