19
Iteration:  1050
 C        -2.572476         0.235487         2.973894
 C        -2.544922         0.136936         1.417787
 C        -3.487495        -0.885448         0.783055
 C        -1.989975        -1.169592         0.943825
 C        -0.823517        -1.189251        -0.077806
 C        -0.159718         0.131856        -0.218881
 O         0.840846         0.188903        -0.897053
 O        -0.665760         1.281527         0.265384
 C        -2.084388         1.282227         0.535860
 H        -3.443500         0.741720         3.361235
 H        -2.697533        -0.744226         3.390364
 H        -1.687767         0.674255         3.329537
 H        -4.321030        -1.339142         1.389845
 H        -3.686144        -0.659278        -0.268798
 H        -1.886029        -1.868278         1.802116
 H         0.138200        -1.674171         0.371453
 H        -1.000057        -1.612210        -1.128618
 H        -2.418452         2.299668         0.957220
 H        -2.595796         1.192515        -0.479561
