19
Iteration:  4083
 C        -3.134566         0.251502         2.775325
 C        -2.386772         0.083491         1.490963
 C        -3.054453        -0.356115         0.147528
 C        -2.058334        -1.256710         0.854906
 C        -0.630824        -1.347645         0.360500
 C        -0.383549         0.040648        -0.345403
 O         0.298387         0.115320        -1.343327
 O        -0.748286         1.288958         0.225270
 C        -1.316033         1.148088         1.504886
 H        -4.219991         0.109259         2.696719
 H        -3.044740        -0.509508         3.489763
 H        -3.110543         1.120453         3.422496
 H        -4.127770        -0.663308         0.193980
 H        -2.610309         0.187680        -0.650522
 H        -2.276992        -2.110322         1.456091
 H         0.089693        -1.509583         1.226358
 H        -0.363400        -2.057461        -0.500533
 H        -0.550917         1.115472         2.246104
 H        -1.779487         2.127462         1.729441
