19
Iteration:   717
 C        -2.847995         0.242034         3.065631
 C        -2.485421         0.052334         1.538227
 C        -3.341681        -0.638304         0.572601
 C        -1.963686        -1.235153         0.836085
 C        -0.665889        -1.221474         0.130495
 C        -0.141928         0.091456        -0.288719
 O         0.830825         0.123460        -1.056853
 O        -0.817228         1.263396         0.023722
 C        -1.997206         1.301787         0.905579
 H        -3.777761         0.674983         3.076109
 H        -2.692856        -0.572385         3.712544
 H        -2.184491         0.920202         3.495881
 H        -4.224606        -1.329741         0.860839
 H        -3.573426        -0.063071        -0.365291
 H        -1.914538        -2.178315         1.516869
 H         0.018515        -1.629123         0.879481
 H        -0.807347        -1.924101        -0.771504
 H        -1.709433         2.018720         1.639502
 H        -2.774660         1.818920         0.260637
