19
Iteration:  4665charge 0 multiplicity 1
 C        -3.090505         0.083521         3.005967
 C        -2.492811         0.063634         1.600028
 C        -3.173421        -0.293688         0.317397
 C        -2.042284        -1.167162         0.909131
 C        -0.705289        -1.242883         0.230378
 C        -0.194237         0.026744        -0.418088
 O         0.654030         0.102357        -1.337927
 O        -0.850592         1.136616         0.106335
 C        -1.555873         1.313274         1.316368
 H        -3.257673         1.186371         3.145048
 H        -4.003157        -0.536322         3.060696
 H        -2.318029        -0.366181         3.681302
 H        -4.264186        -0.611834         0.287277
 H        -2.795386         0.202821        -0.568024
 H        -2.271729        -2.167974         1.411965
 H         0.112499        -1.445402         0.953452
 H        -0.672521        -2.042109        -0.518901
 H        -0.901334         1.332587         2.200690
 H        -2.189910         2.258421         1.403332
