19
Iteration:  2056
 C        -3.163388         0.001084         2.926458
 C        -2.450279         0.159836         1.503460
 C        -3.107475        -0.650591         0.354086
 C        -1.875494        -1.217718         1.035479
 C        -0.441141        -1.008443         0.552204
 C        -0.230139         0.079968        -0.409119
 O         0.408039        -0.055901        -1.405694
 O        -0.798713         1.323407         0.034747
 C        -1.734230         1.405113         1.151080
 H        -3.893890         0.773722         3.380906
 H        -3.835681        -0.879637         2.738242
 H        -2.466513        -0.317765         3.743316
 H        -4.068266        -1.005235         0.645671
 H        -3.178422        -0.227065        -0.684097
 H        -1.896221        -2.114024         1.575675
 H         0.429186        -0.677882         1.228294
 H        -0.065076        -1.968992         0.039625
 H        -1.059894         1.771865         1.954744
 H        -2.451544         2.171585         0.829703
