19
Iteration:  4691
 C        -3.052026         0.225900         3.029996
 C        -2.526084         0.020712         1.551574
 C        -3.285203        -0.371089         0.318387
 C        -2.131877        -1.220085         0.793501
 C        -0.647064        -1.262852         0.318323
 C        -0.212724         0.048700        -0.361669
 O         0.583609         0.174456        -1.295295
 O        -0.754798         1.206501         0.064826
 C        -1.460664         1.168124         1.295610
 H        -3.326163         1.316755         3.092336
 H        -3.827707        -0.555812         3.065823
 H        -2.229220        -0.163962         3.680248
 H        -4.228162        -0.774672         0.521001
 H        -3.105809         0.282525        -0.537081
 H        -2.425863        -2.222028         1.007282
 H         0.048205        -1.287927         1.138812
 H        -0.388964        -2.072176        -0.366015
 H        -0.800620         1.024879         2.122387
 H        -1.950349         2.082805         1.498435
