19
Iteration:   680charge 0 multiplicity 1
 C        -2.881552         0.008909         2.947473
 C        -2.542363         0.125193         1.476127
 C        -3.264740        -0.639153         0.455769
 C        -1.986665        -1.145042         1.032946
 C        -0.669968        -1.150290         0.417209
 C        -0.211878         0.095150        -0.353376
 O         0.759912         0.159500        -1.096235
 O        -0.963995         1.204377        -0.208643
 C        -1.717691         1.374841         1.016004
 H        -3.563144         0.780496         3.407987
 H        -3.551647        -0.861647         3.150749
 H        -1.869016         0.021199         3.496947
 H        -4.163941        -1.100433         0.752673
 H        -3.157171        -0.315113        -0.565937
 H        -2.145234        -1.872617         1.729456
 H         0.109792        -1.292955         1.251381
 H        -0.429990        -2.015445        -0.161122
 H        -1.090735         1.606093         1.925833
 H        -2.337439         2.234592         0.863115
