19
Iteration:  4581charge 0 multiplicity 1
 C        -3.138569         0.379313         2.901491
 C        -2.523092         0.007564         1.602565
 C        -3.249534        -0.410526         0.327874
 C        -2.016226        -1.283253         0.836015
 C        -0.609805        -1.306917         0.217948
 C        -0.120584         0.041735        -0.389459
 O         0.473932         0.240600        -1.396870
 O        -0.740376         1.155240         0.186162
 C        -1.485868         1.118287         1.419345
 H        -4.053528         1.012447         2.927023
 H        -3.469563        -0.556092         3.427489
 H        -2.485632         0.856730         3.679100
 H        -4.203752        -0.958418         0.459977
 H        -3.100840         0.263030        -0.496791
 H        -2.341326        -2.078746         1.443263
 H         0.106382        -1.709013         0.944250
 H        -0.549805        -1.928572        -0.687002
 H        -0.706059         1.123665         2.271288
 H        -1.967650         2.122289         1.297758
