19
Iteration:  1918
 C        -2.986341         0.205395         2.917495
 C        -2.417301         0.043838         1.590864
 C        -3.129200        -0.693707         0.388498
 C        -1.890635        -1.263730         1.036571
 C        -0.558657        -1.169532         0.340520
 C        -0.208269         0.124384        -0.281551
 O         0.587436         0.097023        -1.194736
 O        -0.984950         1.237780        -0.082101
 C        -1.791870         1.399347         1.105575
 H        -3.435886         1.185507         3.075189
 H        -3.748948        -0.593884         2.997330
 H        -2.200488         0.107339         3.696973
 H        -4.180675        -0.971837         0.366416
 H        -2.793813        -0.226163        -0.576747
 H        -2.131650        -2.276321         1.446080
 H         0.209112        -1.343638         0.988894
 H        -0.532733        -1.843271        -0.467106
 H        -1.104459         1.905562         1.831548
 H        -2.695015         1.983753         0.786465
