19
Iteration:  2438
 C        -3.245583         0.347982         2.868818
 C        -2.451507         0.031849         1.602648
 C        -3.183621        -0.763488         0.454076
 C        -1.850264        -1.236019         1.095582
 C        -0.472374        -1.218964         0.297178
 C        -0.171439         0.137530        -0.480569
 O         0.588363         0.215619        -1.449302
 O        -0.854096         1.204338         0.089528
 C        -1.731876         1.260953         1.250586
 H        -3.980550         1.156942         2.715165
 H        -3.728193        -0.524889         3.334873
 H        -2.675369         0.702232         3.717631
 H        -3.975244        -1.367619         0.736705
 H        -3.074888        -0.467016        -0.529216
 H        -1.860551        -1.979734         1.917534
 H         0.449335        -1.510990         0.940869
 H        -0.591409        -2.077903        -0.426341
 H        -1.268506         1.647617         2.104917
 H        -2.518749         2.023320         1.064403
