19
Iteration:  3070
 C        -3.143192         0.115080         2.942566
 C        -2.506217         0.070661         1.566831
 C        -3.076024        -0.609830         0.332196
 C        -1.864931        -1.187916         1.060817
 C        -0.537729        -1.109936         0.437672
 C        -0.263978         0.144595        -0.422548
 O         0.619228         0.162490        -1.282424
 O        -1.037517         1.183068        -0.089483
 C        -1.597030         1.266163         1.221001
 H        -4.139624        -0.440581         2.809623
 H        -2.490761        -0.432829         3.640829
 H        -3.276448         1.140063         3.257691
 H        -3.945523        -1.232785         0.592062
 H        -3.099141        -0.130298        -0.682781
 H        -1.971838        -2.037506         1.702723
 H         0.281338        -1.190855         1.102653
 H        -0.414622        -1.939513        -0.306804
 H        -0.827124         1.343759         1.972213
 H        -2.319692         2.166593         1.082552
