19
Iteration:  2903charge 0 multiplicity 1
 C        -3.296287         0.064306         2.856200
 C        -2.589509         0.083870         1.537785
 C        -3.102774        -0.740822         0.339155
 C        -1.816690        -1.162143         1.029479
 C        -0.343971        -1.000561         0.598141
 C        -0.222305         0.076150        -0.471729
 O         0.407779         0.073614        -1.498756
 O        -0.907813         1.297054         0.007748
 C        -1.517602         1.316155         1.296283
 H        -3.706170         1.041649         2.932647
 H        -4.040200        -0.727753         2.880988
 H        -2.603910        -0.038409         3.765010
 H        -3.906798        -1.452622         0.590003
 H        -3.244940        -0.348872        -0.658196
 H        -2.020816        -2.047651         1.731386
 H         0.191854        -0.667376         1.481666
 H         0.109225        -1.917321         0.381393
 H        -0.778331         1.344339         2.145310
 H        -2.096939         2.279479         1.253663
