19
Iteration:   164charge 0 multiplicity 1
 C        -3.334006         0.082171         2.950518
 C        -2.539165         0.131141         1.587014
 C        -3.276068        -0.473247         0.301605
 C        -2.103185        -1.175238         0.959703
 C        -0.677734        -1.091392         0.326612
 C        -0.129013         0.084513        -0.399614
 O         0.560202         0.022335        -1.440942
 O        -0.623372         1.282447         0.060708
 C        -1.328006         1.218397         1.381258
 H        -3.519404        -1.024383         3.255149
 H        -2.929456         0.558954         3.851136
 H        -4.349075         0.510836         2.803985
 H        -4.306334        -0.803731         0.418540
 H        -3.058447        -0.048981        -0.654191
 H        -2.262328        -2.173919         1.386696
 H         0.007910        -1.352660         1.202017
 H        -0.469802        -1.944266        -0.327263
 H        -0.568438         0.880550         2.169901
 H        -1.641494         2.247909         1.571570
