19
Iteration:  2292charge 0 multiplicity 1
 C        -3.198448         0.189163         2.830055
 C        -2.435641         0.146145         1.551899
 C        -3.059854        -0.716681         0.436260
 C        -1.794346        -1.245995         1.187979
 C        -0.560735        -1.221011         0.256561
 C        -0.297881         0.129530        -0.393127
 O         0.663056         0.176418        -1.157156
 O        -1.138758         1.224258        -0.157069
 C        -1.574718         1.342568         1.209421
 H        -3.292130         1.211947         3.301177
 H        -4.102866        -0.404972         2.875047
 H        -2.575754        -0.321268         3.610454
 H        -4.128099        -1.057737         0.769938
 H        -3.013537        -0.404706        -0.625116
 H        -1.994126        -2.133001         1.784353
 H         0.398071        -1.421462         0.832360
 H        -0.494853        -1.916507        -0.582454
 H        -0.632240         1.344016         1.739800
 H        -2.260639         2.250564         1.258447
