19
Iteration:  1003
 C        -2.506965         0.484752         2.967152
 C        -2.535936         0.016667         1.503787
 C        -3.439135        -1.001692         0.911705
 C        -1.893857        -1.222665         0.872926
 C        -1.074817        -1.061999        -0.448528
 C        -0.135662         0.105231        -0.258609
 O         1.035797         0.206098        -0.535011
 O        -0.734435         1.229583         0.148536
 C        -2.194960         1.177300         0.528138
 H        -2.867349         1.511491         3.134326
 H        -3.283278        -0.104769         3.509947
 H        -1.532274         0.253972         3.436453
 H        -3.907202        -1.630544         1.613171
 H        -3.990286        -0.842669         0.005860
 H        -1.377377        -1.824521         1.573575
 H        -0.485804        -1.956523        -0.667595
 H        -1.710651        -0.778714        -1.302677
 H        -2.190367         2.098654         1.150969
 H        -2.841836         1.367770        -0.270943
