19
Iteration:  3078
 C        -3.223881         0.089353         2.908507
 C        -2.528362         0.112236         1.531123
 C        -3.190856        -0.593960         0.459425
 C        -1.844273        -1.188435         1.082027
 C        -0.456819        -1.168692         0.376482
 C        -0.202304         0.111199        -0.453673
 O         0.653055         0.174043        -1.277090
 O        -1.038527         1.260001        -0.138046
 C        -1.610870         1.226819         1.235900
 H        -4.085360        -0.550307         3.138050
 H        -2.414670        -0.263561         3.556848
 H        -3.391843         1.150688         3.245940
 H        -4.067692        -1.074930         0.754893
 H        -3.108022        -0.302709        -0.628847
 H        -2.047484        -2.147844         1.591419
 H         0.316718        -1.236116         1.156616
 H        -0.218468        -1.985456        -0.271492
 H        -0.751483         1.310173         1.932708
 H        -2.142608         2.136714         1.365824
