19
Iteration:  3625charge 0 multiplicity 1
 C        -3.073510         0.073865         2.826912
 C        -2.521364         0.184369         1.500040
 C        -3.237795        -0.370401         0.190261
 C        -2.129266        -1.151374         0.957939
 C        -0.752877        -1.258858         0.314600
 C        -0.332784         0.085673        -0.417067
 O         0.424696         0.031334        -1.321929
 O        -0.568065         1.267193         0.196968
 C        -1.322944         1.181264         1.437877
 H        -3.794259        -0.738925         3.068075
 H        -2.186475        -0.125674         3.436579
 H        -3.372090         1.042719         3.305558
 H        -4.287365        -0.328507         0.109555
 H        -2.990311         0.153562        -0.783403
 H        -2.561216        -2.048531         1.429115
 H         0.057975        -1.421020         1.065099
 H        -0.656882        -2.176450        -0.335481
 H        -0.542329         0.839025         2.197187
 H        -1.689130         2.132425         1.666744
