19
Iteration:  3692
 C        -3.325249         0.162830         2.817414
 C        -2.408656         0.135260         1.611418
 C        -3.026855        -0.331856         0.271264
 C        -2.094463        -1.159032         0.989312
 C        -0.774492        -1.272804         0.161368
 C        -0.305017        -0.006107        -0.420591
 O         0.336943         0.075895        -1.471261
 O        -0.540806         1.163179         0.270668
 C        -1.287298         1.262947         1.515765
 H        -3.392679        -0.873774         3.272558
 H        -3.051676         0.867204         3.570610
 H        -4.373577         0.441448         2.654142
 H        -4.098542        -0.384160         0.291873
 H        -2.617662         0.118885        -0.622730
 H        -2.288305        -2.149950         1.506022
 H        -0.015709        -1.636156         0.873074
 H        -0.673020        -2.057745        -0.633836
 H        -0.591862         1.169769         2.412701
 H        -1.728467         2.220342         1.421876
