19
Iteration:  2676charge 0 multiplicity 1
 C        -3.076880         0.068438         2.905520
 C        -2.566217         0.183454         1.454577
 C        -3.164768        -0.823963         0.386133
 C        -1.945672        -1.159883         1.094640
 C        -0.569942        -1.099806         0.356923
 C        -0.272433         0.135453        -0.375733
 O         0.592560         0.087900        -1.212092
 O        -0.900145         1.309045        -0.123247
 C        -1.573858         1.358122         1.240133
 H        -3.969814         0.761483         2.947313
 H        -3.459206        -0.923657         3.163364
 H        -2.175197         0.216161         3.446495
 H        -4.090493        -1.182371         0.757340
 H        -3.084380        -0.849012        -0.673278
 H        -1.929617        -1.846866         1.985273
 H         0.210309        -1.253413         1.139966
 H        -0.426644        -1.915676        -0.368887
 H        -0.753398         1.389537         1.946055
 H        -2.129383         2.355952         1.156357
