19
Iteration:   659
 C        -3.060608         0.121137         2.921087
 C        -2.491458         0.147974         1.459030
 C        -3.177468        -0.635580         0.376983
 C        -1.888708        -1.191604         1.024390
 C        -0.465326        -1.143088         0.448723
 C        -0.244741         0.103514        -0.331573
 O         0.658061         0.136053        -1.166862
 O        -1.156013         1.162687        -0.205176
 C        -1.583111         1.346161         1.196614
 H        -3.397173         1.023213         3.373347
 H        -4.040052        -0.341627         2.835076
 H        -2.290547        -0.309344         3.601390
 H        -4.093951        -1.109662         0.689152
 H        -3.177168        -0.269201        -0.650222
 H        -2.070186        -1.895141         1.749134
 H         0.336808        -1.490761         1.177492
 H        -0.431513        -1.991553        -0.208681
 H        -0.713820         1.334997         1.921156
 H        -1.986969         2.326935         1.200710
