19
Iteration:   592charge 0 multiplicity 1
 C        -3.391064         0.250822         2.684074
 C        -2.483048         0.109986         1.426960
 C        -3.055447        -0.830855         0.363712
 C        -1.743925        -1.193812         1.148818
 C        -0.423333        -1.112374         0.443376
 C        -0.247126         0.100229        -0.349345
 O         0.139946         0.081931        -1.471167
 O        -0.689526         1.298059         0.170053
 C        -1.503695         1.274540         1.346248
 H        -3.490260         1.282584         3.024949
 H        -4.372959         0.038457         2.248065
 H        -2.928005        -0.252321         3.572911
 H        -3.977451        -1.304052         0.546360
 H        -2.939865        -0.562275        -0.667200
 H        -1.692605        -1.949971         1.889233
 H         0.457182        -1.175709         1.198223
 H        -0.211908        -1.796452        -0.351832
 H        -0.762653         1.213888         2.193748
 H        -1.886566         2.281168         1.282612
