19
Iteration:  3760
 C        -3.257977         0.306798         2.848827
 C        -2.432002         0.009559         1.620892
 C        -3.084256        -0.253903         0.284824
 C        -2.090668        -1.224378         0.849038
 C        -0.644791        -1.249587         0.328765
 C        -0.229210        -0.027211        -0.450396
 O         0.357711         0.132568        -1.489521
 O        -0.632985         1.175374         0.255585
 C        -1.425721         1.042271         1.462264
 H        -3.943180        -0.518189         3.054672
 H        -2.526939         0.495301         3.658705
 H        -3.685232         1.310630         2.743672
 H        -4.168110        -0.563134         0.280542
 H        -2.746297         0.615419        -0.237928
 H        -2.483979        -2.196735         1.133713
 H         0.095426        -1.226107         1.130002
 H        -0.433640        -2.193434        -0.149454
 H        -0.607435         1.095260         2.211167
 H        -1.882631         2.040199         1.471143
