19
Iteration:  2692
 C        -2.998487         0.045509         2.880401
 C        -2.536036         0.069365         1.436537
 C        -3.293603        -0.732118         0.453201
 C        -1.943282        -1.210690         1.078631
 C        -0.642336        -1.029059         0.471281
 C        -0.170725         0.201706        -0.341260
 O         0.669521         0.051081        -1.231160
 O        -0.896713         1.346516        -0.125507
 C        -1.669898         1.308181         1.063196
 H        -3.801020         0.648995         3.235940
 H        -3.102045        -1.041019         3.031725
 H        -2.223944         0.395182         3.647421
 H        -4.137154        -1.373538         0.893959
 H        -3.269895        -0.185058        -0.537422
 H        -2.078010        -2.076868         1.682080
 H         0.147367        -1.161678         1.205346
 H        -0.509338        -1.901510        -0.201753
 H        -0.921183         1.321387         1.928808
 H        -2.180628         2.222190         1.193224
