19
Iteration:  3101charge 0 multiplicity 1
 C        -3.213081         0.140120         2.934216
 C        -2.473816         0.087646         1.576499
 C        -3.297622        -0.736066         0.531056
 C        -1.967777        -1.244123         1.007628
 C        -0.593413        -1.125787         0.362916
 C        -0.179018         0.177502        -0.446367
 O         0.718849         0.264922        -1.285648
 O        -0.934900         1.202300        -0.133784
 C        -1.497178         1.246173         1.173548
 H        -3.570838        -0.943157         3.214279
 H        -2.668668         0.419886         3.851659
 H        -4.061249         0.858374         2.727140
 H        -4.105688        -1.335394         0.932576
 H        -3.444439        -0.263090        -0.486180
 H        -1.949857        -2.083586         1.707877
 H         0.128710        -1.310993         1.157954
 H        -0.301458        -1.893037        -0.356737
 H        -0.634615         1.353052         1.916093
 H        -2.031399         2.220979         1.249010
