19
Iteration:  4456
 C        -3.128372         0.239488         2.815609
 C        -2.483284         0.051269         1.433490
 C        -3.066089        -0.473206         0.142966
 C        -1.961112        -1.269623         0.896830
 C        -0.598303        -1.254489         0.398295
 C        -0.252823         0.035960        -0.283876
 O         0.198372         0.097401        -1.398563
 O        -0.640386         1.325599         0.211455
 C        -1.471074         1.206627         1.446007
 H        -3.195899         1.250048         3.249943
 H        -4.190530        -0.047535         3.021523
 H        -2.603192        -0.326012         3.690355
 H        -4.050493        -0.930821         0.287791
 H        -2.925951         0.253318        -0.671382
 H        -2.440164        -2.204036         1.302449
 H         0.139559        -1.292779         1.144156
 H        -0.345721        -2.018287        -0.351166
 H        -0.672728         0.970086         2.234160
 H        -1.875909         2.183456         1.775845
