19
Iteration:   959
 C        -2.309882         0.352357         2.825865
 C        -2.513764         0.085129         1.291043
 C        -3.291470        -1.152446         1.006292
 C        -1.773306        -1.167485         0.868530
 C        -1.235284        -0.851971        -0.499270
 C        -0.280758         0.218890        -0.180498
 O         0.934167        -0.117588        -0.233751
 O        -0.780559         1.406092         0.195338
 C        -2.225677         1.200579         0.373417
 H        -2.801828         1.301876         3.088849
 H        -2.741014        -0.391145         3.516310
 H        -1.245785         0.557600         2.866462
 H        -3.722255        -1.611899         1.910489
 H        -3.884923        -1.046408         0.162617
 H        -1.073078        -1.660778         1.556789
 H        -0.864581        -1.750942        -0.957394
 H        -2.122652        -0.503616        -1.044501
 H        -2.582972         2.135873         0.828059
 H        -2.603586         1.165996        -0.608032
