19
Iteration:  2567
 C        -3.216904         0.045012         2.754947
 C        -2.554456         0.113602         1.400392
 C        -2.971885        -0.670950         0.208150
 C        -1.889590        -1.216294         1.098795
 C        -0.452684        -1.124949         0.663448
 C        -0.340382         0.102055        -0.345825
 O         0.150214        -0.002625        -1.425207
 O        -0.728077         1.415637         0.025649
 C        -1.417033         1.389071         1.327283
 H        -4.106633         0.666924         3.186960
 H        -3.496607        -0.976844         3.088248
 H        -2.423692         0.361335         3.425933
 H        -3.835654        -1.334961         0.300629
 H        -2.869908        -0.419981        -0.751340
 H        -2.108182        -2.094055         1.757772
 H         0.124887        -1.055391         1.528575
 H        -0.146494        -1.966234         0.068849
 H        -0.602490         1.212215         2.066870
 H        -1.947419         2.393267         1.310696
