19
Iteration:  2528
 C        -3.396329         0.131970         2.843341
 C        -2.437719         0.010328         1.621638
 C        -2.932155        -0.404617         0.290526
 C        -1.779168        -1.234053         0.981885
 C        -0.292526        -1.106641         0.670372
 C        -0.163098         0.011504        -0.428681
 O         0.145541         0.004602        -1.592336
 O        -0.830291         1.199469         0.099752
 C        -1.635046         1.346318         1.305832
 H        -3.967720         0.975512         2.631833
 H        -3.816570        -0.854087         3.039148
 H        -2.638905         0.402101         3.612400
 H        -3.883911        -0.977359         0.370231
 H        -2.754939         0.368063        -0.555496
 H        -2.148064        -2.266508         1.181935
 H         0.397488        -0.751199         1.535761
 H         0.113521        -2.119271         0.317975
 H        -1.090096         1.834128         2.110076
 H        -2.391691         2.094192         1.098188
