19
Iteration:   821charge 0 multiplicity 1
 C        -2.589983         0.498127         2.913138
 C        -2.487142         0.005779         1.455113
 C        -3.418703        -1.071590         0.897204
 C        -1.925573        -1.253563         0.888102
 C        -1.091580        -1.007297        -0.436502
 C        -0.134000         0.152904        -0.340279
 O         0.999560         0.259957        -0.650789
 O        -0.709860         1.148144         0.362665
 C        -2.073443         1.189043         0.577043
 H        -3.055822         1.560695         2.959301
 H        -3.322389         0.098447         3.638124
 H        -1.573335         0.746102         3.332487
 H        -3.982909        -1.686803         1.624070
 H        -3.846619        -0.857835        -0.007191
 H        -1.542927        -1.893189         1.580514
 H        -0.628248        -2.030602        -0.576132
 H        -1.804683        -1.003827        -1.263497
 H        -2.398032         2.094664         1.208727
 H        -2.572124         1.315888        -0.411781
