19
Iteration:  1943
 C        -3.176577         0.191355         2.919578
 C        -2.533072         0.158257         1.565227
 C        -3.127652        -0.711698         0.487724
 C        -1.831011        -1.143220         1.167580
 C        -0.595251        -1.285046         0.246607
 C        -0.249215         0.053944        -0.493985
 O         0.693416         0.259426        -1.192470
 O        -0.995372         1.207330        -0.130395
 C        -1.585528         1.311699         1.195791
 H        -3.927361         1.068157         2.967594
 H        -3.716688        -0.775298         2.983119
 H        -2.453349         0.348993         3.741355
 H        -3.920463        -1.395633         0.764390
 H        -3.002233        -0.600768        -0.611977
 H        -2.177197        -2.037226         1.799644
 H         0.394656        -1.415829         0.761734
 H        -0.848155        -2.107087        -0.433669
 H        -0.785654         1.475172         1.965510
 H        -2.312296         2.114547         1.050537
