19
Iteration:  2916charge 0 multiplicity 1
 C        -3.321092         0.207241         2.811066
 C        -2.446485         0.017664         1.533784
 C        -2.998924        -0.709636         0.315950
 C        -1.818657        -1.252492         1.122582
 C        -0.414200        -0.966084         0.582346
 C        -0.220457         0.157469        -0.385013
 O         0.329346         0.123494        -1.493724
 O        -0.923408         1.189027        -0.025354
 C        -1.555833         1.226563         1.310950
 H        -3.719574         1.210381         3.098925
 H        -4.209776        -0.403794         2.762284
 H        -2.692750        -0.133629         3.630941
 H        -3.958898        -1.307150         0.415738
 H        -2.772125        -0.327223        -0.619176
 H        -1.881412        -2.300262         1.485862
 H         0.247859        -0.647751         1.432114
 H        -0.017517        -1.807873         0.018135
 H        -0.795687         1.350370         2.082380
 H        -2.156986         2.233826         1.374943
