19
Iteration:  2569
 C        -3.225455         0.041949         2.755477
 C        -2.552957         0.134642         1.394863
 C        -2.972676        -0.694772         0.225768
 C        -1.912796        -1.213300         1.107038
 C        -0.468653        -1.130163         0.663008
 C        -0.330722         0.111511        -0.349220
 O         0.158869         0.016484        -1.436304
 O        -0.727299         1.413648         0.011063
 C        -1.417603         1.373291         1.342865
 H        -4.063954         0.749602         3.161863
 H        -3.461723        -1.029193         3.022322
 H        -2.378982         0.384478         3.417098
 H        -3.823263        -1.363017         0.321130
 H        -2.756540        -0.462614        -0.797211
 H        -2.076138        -2.073793         1.829242
 H         0.106495        -1.084391         1.569407
 H        -0.144706        -2.018501         0.050190
 H        -0.612624         1.193064         2.108593
 H        -1.898547         2.390360         1.319646
