19
Iteration:   361
 C        -2.827961         0.051353         3.036831
 C        -2.558335         0.112444         1.505471
 C        -3.444838        -0.609721         0.523415
 C        -2.057804        -1.153578         0.949526
 C        -0.837120        -1.179390         0.087704
 C        -0.149397         0.097043        -0.362722
 O         0.882830         0.091418        -0.962518
 O        -0.709525         1.290260        -0.036534
 C        -1.790231         1.333691         0.925405
 H        -1.929836         0.077488         3.741547
 H        -3.495814         0.821877         3.516789
 H        -3.355895        -0.946285         3.257604
 H        -4.340155        -1.022318         0.880793
 H        -3.608640        -0.326155        -0.519939
 H        -2.180721        -1.936964         1.727531
 H         0.026003        -1.589919         0.740823
 H        -0.887515        -1.764378        -0.839529
 H        -1.264249         1.741657         1.870185
 H        -2.494963         2.058303         0.511664
