19
Iteration:  4064
 C        -3.284515         0.160393         2.777177
 C        -2.382869         0.051224         1.566215
 C        -2.982777        -0.276306         0.256033
 C        -1.986981        -1.205323         0.951334
 C        -0.677693        -1.276467         0.286304
 C        -0.190021         0.107123        -0.290713
 O         0.310031         0.066710        -1.412743
 O        -0.764658         1.171496         0.130124
 C        -1.376243         1.198710         1.508881
 H        -4.403971         0.215134         2.606716
 H        -3.071758        -0.542973         3.609326
 H        -3.042502         1.083991         3.423514
 H        -4.092836        -0.540189         0.440973
 H        -2.710752         0.291436        -0.667898
 H        -2.561271        -2.056451         1.181141
 H         0.137543        -1.577264         0.874797
 H        -0.638693        -1.889347        -0.600241
 H        -0.659319         0.967374         2.366424
 H        -1.870033         2.157862         1.511359
