19
Iteration:  4700charge 0 multiplicity 1
 C        -3.052701         0.169539         2.957422
 C        -2.477415         0.078525         1.509286
 C        -3.317588        -0.392845         0.338003
 C        -2.138598        -1.296237         0.774498
 C        -0.646807        -1.204694         0.283382
 C        -0.174813         0.045436        -0.352504
 O         0.554606         0.121411        -1.291576
 O        -0.791397         1.256964         0.117174
 C        -1.427422         1.205452         1.325236
 H        -3.458771         1.255023         3.157821
 H        -3.968172        -0.437293         3.267890
 H        -2.224482         0.118401         3.774013
 H        -4.272987        -0.807685         0.483157
 H        -3.184418         0.127381        -0.603276
 H        -2.210938        -2.276390         1.191501
 H        -0.182246        -1.409740         1.227613
 H        -0.382638        -2.044995        -0.341815
 H        -0.608779         0.923349         1.930010
 H        -1.656743         2.273768         1.561883
