19
Iteration:  1255
 C        -3.196682         0.121207         2.860265
 C        -2.498953         0.228774         1.513422
 C        -3.085029        -0.580081         0.353401
 C        -1.964138        -1.163949         1.072546
 C        -0.461284        -1.193708         0.507034
 C        -0.216415         0.095938        -0.351856
 O         0.527857         0.065231        -1.269332
 O        -1.109887         1.194971        -0.195567
 C        -1.425805         1.316701         1.230779
 H        -4.262739         0.493385         3.017931
 H        -3.198037        -0.983250         3.027516
 H        -2.520985         0.565938         3.616667
 H        -4.055248        -0.831975         0.757745
 H        -3.182289        -0.314083        -0.705493
 H        -1.998385        -2.060959         1.718058
 H         0.190922        -1.197362         1.326749
 H        -0.172679        -2.048164        -0.042604
 H        -0.417455         1.031126         1.756940
 H        -1.665133         2.324926         1.612606
