19
Iteration:  1728charge 0 multiplicity 1
 C        -3.140793         0.097885         2.829099
 C        -2.453628         0.103123         1.499890
 C        -2.959157        -0.656999         0.211156
 C        -1.857637        -1.153186         1.080094
 C        -0.366290        -1.188743         0.638800
 C        -0.210745         0.045777        -0.334990
 O         0.203487         0.016245        -1.472510
 O        -0.789178         1.298342         0.098477
 C        -1.736089         1.431896         1.208311
 H        -3.765716         0.995951         3.035500
 H        -3.846131        -0.724565         2.976162
 H        -2.386002         0.090507         3.633737
 H        -3.999828        -0.986125         0.206431
 H        -2.796304        -0.112928        -0.771095
 H        -2.138121        -2.044328         1.715257
 H         0.233239        -1.206924         1.456742
 H        -0.231817        -2.139666         0.040065
 H        -1.173315         1.902783         2.057606
 H        -2.597115         2.070983         0.927689
