19
Iteration:  2950charge 0 multiplicity 1
 C        -3.369142         0.304209         2.669334
 C        -2.359253         0.098678         1.591229
 C        -2.832857        -0.759399         0.272290
 C        -1.672587        -1.326016         1.169859
 C        -0.378816        -1.227827         0.491588
 C        -0.363616         0.129552        -0.343699
 O         0.231771         0.153485        -1.415078
 O        -1.021282         1.276409         0.018035
 C        -1.565455         1.363038         1.404350
 H        -3.502618         1.422905         2.843491
 H        -4.217993        -0.336925         2.494539
 H        -2.916696        -0.141230         3.521617
 H        -3.741700        -1.384314         0.276898
 H        -2.708988        -0.438312        -0.797298
 H        -1.978227        -2.287193         1.519037
 H         0.618449        -1.275724         1.064803
 H        -0.275255        -2.160362        -0.176041
 H        -0.696816         1.416122         2.056635
 H        -2.222008         2.362423         1.378837
