19
Iteration:   689charge 0 multiplicity 1
 C        -2.856054         0.047948         3.029898
 C        -2.513386         0.136105         1.501761
 C        -3.300188        -0.647877         0.433663
 C        -2.034291        -1.224102         1.000740
 C        -0.662347        -1.130481         0.395496
 C        -0.200965         0.063848        -0.418679
 O         0.804938         0.159936        -1.072495
 O        -0.898654         1.247584        -0.179491
 C        -1.822127         1.358286         1.014796
 H        -3.637294         0.888142         3.346805
 H        -3.138445        -1.056319         3.162835
 H        -1.926618         0.195324         3.717643
 H        -4.167788        -1.134816         0.682228
 H        -3.370070        -0.203167        -0.550982
 H        -2.116350        -2.042612         1.697833
 H         0.043957        -1.283030         1.245178
 H        -0.667826        -2.022648        -0.206538
 H        -1.109078         1.833061         1.745864
 H        -2.496486         2.102515         0.581480
