19
Iteration:   135charge 0 multiplicity 1
 C        -3.420223         0.198059         2.746310
 C        -2.422380         0.094122         1.565975
 C        -2.974017        -0.314456         0.278931
 C        -1.894311        -1.181050         1.000078
 C        -0.559555        -1.231536         0.347454
 C        -0.265519        -0.006891        -0.428764
 O         0.284373         0.122372        -1.476664
 O        -0.692489         1.143664         0.219840
 C        -1.401363         1.198606         1.509659
 H        -3.867339        -0.644615         3.138966
 H        -2.920476         0.688686         3.625034
 H        -4.235710         0.862523         2.407172
 H        -3.992516        -0.643284         0.606460
 H        -2.800823         0.074167        -0.706234
 H        -2.225918        -2.300350         1.253671
 H         0.268686        -1.489020         1.010705
 H        -0.490585        -2.061345        -0.341066
 H        -0.747585         1.077865         2.322267
 H        -1.969097         2.132968         1.443751
