19
Iteration:   812charge 0 multiplicity 1
 C        -2.709029         0.537134         2.925408
 C        -2.533207        -0.011743         1.504226
 C        -3.397084        -1.090782         0.896031
 C        -1.885896        -1.274739         0.946966
 C        -1.180607        -1.021363        -0.423629
 C        -0.163716         0.195516        -0.400652
 O         1.033356         0.250098        -0.726678
 O        -0.617017         1.188747         0.427896
 C        -2.028487         1.183790         0.568401
 H        -3.155044         1.583687         2.756381
 H        -3.342082        -0.148615         3.586615
 H        -1.679286         0.511625         3.463621
 H        -3.955834        -1.681503         1.668766
 H        -3.887947        -1.056887        -0.080204
 H        -1.467197        -2.026126         1.559359
 H        -0.583955        -1.917223        -0.705526
 H        -1.882518        -0.775309        -1.181704
 H        -2.179912         2.227171         0.847157
 H        -2.487174         1.086157        -0.410552
