19
Iteration:  3416
 C        -3.185295         0.106484         2.817154
 C        -2.434580         0.173627         1.466735
 C        -3.201395        -0.496639         0.296855
 C        -2.079270        -1.219249         0.966263
 C        -0.701656        -1.157163         0.340310
 C        -0.242161         0.143901        -0.395893
 O         0.416751         0.026741        -1.379580
 O        -0.727159         1.323676         0.113671
 C        -1.317631         1.146670         1.475551
 H        -2.569866         0.218133         3.693612
 H        -3.786035         1.029931         2.932702
 H        -3.685068        -0.898928         2.813428
 H        -4.202201        -0.911595         0.354534
 H        -2.952973        -0.131729        -0.750728
 H        -2.116450        -1.914795         1.770620
 H        -0.060332        -1.303219         1.162867
 H        -0.330491        -1.843933        -0.392365
 H        -0.583880         0.704551         2.110334
 H        -1.568446         2.115491         1.837528
