19
Iteration:    19charge 0 multiplicity 1
 C        -3.278609         0.176051         2.767515
 C        -2.388433         0.130531         1.541509
 C        -2.917084        -0.351863         0.178421
 C        -1.923390        -1.266079         0.925463
 C        -0.557595        -1.281219         0.335922
 C        -0.315868         0.026653        -0.373439
 O         0.305219        -0.071212        -1.411242
 O        -0.787395         1.338855         0.234436
 C        -1.489490         1.319176         1.562261
 H        -4.255291        -0.441096         2.659390
 H        -2.723747        -0.242193         3.581321
 H        -3.615047         1.156840         3.063855
 H        -3.992953        -0.745472         0.268862
 H        -2.670074         0.131882        -0.758751
 H        -2.406645        -2.123662         1.272396
 H         0.273998        -1.614015         1.015797
 H        -0.365938        -2.076069        -0.469750
 H        -0.760328         1.427036         2.367511
 H        -2.086957         2.241794         1.466961
