19
Iteration:  1216
 C        -3.134800         0.241127         3.015775
 C        -2.446040         0.054963         1.595984
 C        -3.149487        -0.536993         0.415923
 C        -1.946198        -1.316433         1.005254
 C        -0.567843        -1.192504         0.413391
 C        -0.168747         0.067545        -0.430798
 O         0.600910         0.074827        -1.361446
 O        -0.752415         1.250560        -0.001519
 C        -1.856241         1.326072         1.104136
 H        -4.009768         0.899218         3.043220
 H        -3.344402        -0.747919         3.398533
 H        -2.423419         0.560488         3.778008
 H        -4.174091        -0.836144         0.548077
 H        -2.876083        -0.089856        -0.601245
 H        -2.235812        -2.158456         1.597408
 H         0.229288        -1.229102         1.264889
 H        -0.350233        -2.128721        -0.251180
 H        -1.409467         1.829450         1.912776
 H        -2.504656         2.003990         0.563193
