19
Iteration:  1735charge 0 multiplicity 1
 C        -3.168977         0.130644         2.837923
 C        -2.403976         0.106393         1.534075
 C        -3.008274        -0.699251         0.181709
 C        -1.887397        -1.207172         1.072131
 C        -0.423214        -1.178912         0.655028
 C        -0.272448         0.095680        -0.371830
 O         0.232363         0.030538        -1.474345
 O        -0.786030         1.334862         0.120494
 C        -1.635373         1.374460         1.185509
 H        -3.836411         0.996100         3.043373
 H        -3.771576        -0.789444         2.862072
 H        -2.407951         0.136670         3.618120
 H        -3.955293        -1.251065         0.331947
 H        -2.773702        -0.307131        -0.756636
 H        -2.223488        -1.907834         1.857692
 H         0.215866        -1.080816         1.613289
 H        -0.050365        -1.953335        -0.000452
 H        -1.092010         1.835658         2.045361
 H        -2.416989         2.050372         0.793572
