19
Iteration:  1446charge 0 multiplicity 1
 C        -3.244206         0.215180         2.831808
 C        -2.441097         0.127404         1.533565
 C        -3.116435        -0.772039         0.477607
 C        -1.917967        -1.238282         1.121231
 C        -0.601367        -1.246436         0.415146
 C        -0.185323         0.184269        -0.394473
 O         0.529231         0.048010        -1.333545
 O        -0.887219         1.336551        -0.123260
 C        -1.533356         1.405927         1.272533
 H        -4.167606         0.715334         2.481191
 H        -3.427429        -0.815900         3.205936
 H        -2.750198         0.704300         3.720317
 H        -3.967298        -1.305315         0.759019
 H        -3.039435        -0.710756        -0.611931
 H        -1.968941        -2.057580         1.862482
 H         0.192213        -1.612701         0.937227
 H        -0.809536        -1.846495        -0.498362
 H        -0.613274         1.306558         1.950976
 H        -2.005565         2.401948         1.294894
