19
Iteration:   109
 C        -3.335717         0.301463         2.644294
 C        -2.366092         0.080162         1.478107
 C        -2.879301        -0.499571         0.162544
 C        -1.968847        -1.325250         0.991270
 C        -0.562492        -1.394437         0.427503
 C        -0.341741         0.042728        -0.295491
 O         0.022622         0.193270        -1.459314
 O        -0.612268         1.306382         0.280966
 C        -1.316308         1.238827         1.514184
 H        -4.171567        -0.442262         2.697343
 H        -2.827941         0.296803         3.578147
 H        -3.826498         1.260244         2.521854
 H        -3.877211        -0.773289        -0.012914
 H        -2.379463         0.013528        -0.686691
 H        -2.299324        -2.110913         1.606419
 H         0.168727        -1.554647         1.279536
 H        -0.302383        -2.174173        -0.320438
 H        -0.684121         1.049664         2.399923
 H        -1.888540         2.153306         1.610477
