19
Iteration:  2268charge 0 multiplicity 1
 C        -3.142239         0.084167         2.861258
 C        -2.530920         0.152414         1.516097
 C        -3.145551        -0.800859         0.475122
 C        -1.916604        -1.187449         1.163261
 C        -0.600155        -1.113613         0.431761
 C        -0.245468         0.138792        -0.448852
 O         0.618161         0.175999        -1.311090
 O        -0.883137         1.286192        -0.083704
 C        -1.600649         1.304343         1.137541
 H        -3.614796         1.011550         3.214809
 H        -3.894091        -0.708946         2.833519
 H        -2.516248        -0.197710         3.772912
 H        -4.094315        -1.326705         0.627438
 H        -2.980297        -0.425882        -0.591199
 H        -1.913461        -1.875175         2.026222
 H         0.191265        -1.354439         1.087399
 H        -0.543358        -1.887869        -0.290617
 H        -0.788351         1.286445         1.796162
 H        -2.189715         2.196388         1.085363
