19
Iteration:  2685
 C        -2.996775         0.023614         2.853354
 C        -2.556078         0.147366         1.448794
 C        -3.214967        -0.786167         0.422753
 C        -1.939177        -1.189852         1.105599
 C        -0.666947        -1.026000         0.442654
 C        -0.200812         0.182065        -0.345133
 O         0.634412         0.052832        -1.224719
 O        -0.894902         1.332055        -0.137820
 C        -1.623678         1.327774         1.139646
 H        -3.872414         0.672962         3.166290
 H        -3.307045        -0.997782         3.132355
 H        -2.251518         0.371593         3.595777
 H        -4.185456        -1.281263         0.778717
 H        -3.338840        -0.574266        -0.605980
 H        -1.956736        -2.089531         1.750917
 H         0.164059        -1.233869         1.238908
 H        -0.478653        -1.747722        -0.339397
 H        -0.943657         1.260823         1.975604
 H        -2.043562         2.360198         1.173341
