19
Iteration:  3799
 C        -3.180093         0.005763         2.798065
 C        -2.460557         0.228667         1.540491
 C        -3.104961        -0.330833         0.216895
 C        -1.979760        -1.088147         0.973195
 C        -0.751792        -1.279378         0.310150
 C        -0.247542         0.056520        -0.322213
 O         0.342375        -0.037902        -1.384927
 O        -0.681986         1.251386         0.145635
 C        -1.297048         1.293990         1.442070
 H        -4.212484        -0.352319         2.491735
 H        -2.741536        -0.759890         3.444833
 H        -3.370755         0.925017         3.389049
 H        -4.115269        -0.762563         0.416495
 H        -2.997163         0.303615        -0.645769
 H        -2.375628        -1.984898         1.608371
 H        -0.063761        -1.671004         1.111717
 H        -0.892232        -2.009077        -0.552331
 H        -0.698186         0.968469         2.301269
 H        -1.596242         2.328586         1.643825
