19
Iteration:  2126charge 0 multiplicity 1
 C        -3.353530         0.362557         2.711723
 C        -2.400006        -0.027622         1.562129
 C        -2.889127        -0.691316         0.292963
 C        -1.752614        -1.267867         1.167899
 C        -0.334274        -1.069676         0.540270
 C        -0.317604         0.102192        -0.435300
 O         0.224311         0.131050        -1.494742
 O        -0.979220         1.241957         0.083183
 C        -1.505815         1.154755         1.352605
 H        -3.904942         1.247701         2.443004
 H        -4.138904        -0.437372         2.682088
 H        -3.073932         0.442351         3.780051
 H        -3.965765        -1.019947         0.327969
 H        -2.763943        -0.112448        -0.605049
 H        -2.021416        -2.212057         1.729015
 H         0.458080        -0.969677         1.434687
 H         0.070612        -1.896003        -0.021870
 H        -0.654526         1.151073         2.085658
 H        -2.062381         2.115702         1.304075
