19
Iteration:  3015charge 0 multiplicity 1
 C        -3.186093         0.121749         2.838646
 C        -2.488021        -0.024795         1.531656
 C        -3.129211        -0.732903         0.353333
 C        -1.848988        -1.179115         1.013203
 C        -0.423603        -1.041824         0.461420
 C        -0.208438         0.126074        -0.342908
 O         0.312032         0.075779        -1.424026
 O        -0.752232         1.282121         0.107335
 C        -1.657415         1.336762         1.193789
 H        -4.273750         0.468575         2.680916
 H        -3.187380        -0.871324         3.315263
 H        -2.748757         0.822713         3.531175
 H        -4.028112        -1.270645         0.465305
 H        -3.005306        -0.310218        -0.712332
 H        -1.753432        -2.002841         1.704368
 H         0.124432        -0.822734         1.370274
 H        -0.041395        -1.970457        -0.040692
 H        -1.140100         1.706595         2.094748
 H        -2.365851         2.287963         0.950504
