19
Iteration:  2351
 C        -2.991322         0.227726         3.014424
 C        -2.538269         0.041152         1.521802
 C        -3.323559        -0.785317         0.448277
 C        -1.934967        -1.201075         1.012621
 C        -0.577703        -1.171740         0.326303
 C        -0.154761         0.103629        -0.370235
 O         0.755916         0.288370        -1.175849
 O        -0.968638         1.183343        -0.204419
 C        -1.741794         1.294069         1.133006
 H        -3.442072         1.205210         3.137721
 H        -3.834715        -0.404713         3.348348
 H        -2.101279         0.106490         3.639757
 H        -4.085587        -1.376216         0.777915
 H        -3.352387        -0.428273        -0.580181
 H        -2.036582        -2.069234         1.675106
 H         0.106134        -1.286187         1.260216
 H        -0.371478        -2.098537        -0.352847
 H        -0.888815         1.463041         1.839899
 H        -2.203346         2.281294         1.181187
