19
Iteration:  2660charge 0 multiplicity 1
 C        -3.208611         0.214809         2.858258
 C        -2.456894         0.136362         1.495709
 C        -3.073902        -0.753929         0.393000
 C        -1.794624        -1.192454         1.163950
 C        -0.563162        -1.263493         0.350402
 C        -0.286775         0.063502        -0.455038
 O         0.556834         0.195599        -1.290477
 O        -0.955556         1.257325        -0.006884
 C        -1.612279         1.357252         1.217027
 H        -3.924496         1.020472         3.052618
 H        -3.870837        -0.668948         3.037977
 H        -2.483831         0.186127         3.737995
 H        -4.047262        -1.340225         0.469910
 H        -3.070111        -0.333220        -0.680603
 H        -1.887562        -2.033980         1.824124
 H         0.374692        -1.285422         0.987715
 H        -0.507724        -2.108387        -0.355894
 H        -0.901303         1.321589         2.085887
 H        -2.110436         2.294372         1.200788
