19
Iteration:  1309charge 0 multiplicity 1
 C        -3.322549         0.401499         2.861031
 C        -2.532496         0.082737         1.613522
 C        -3.104264        -0.724514         0.400925
 C        -1.802638        -1.254827         1.076185
 C        -0.380505        -1.218531         0.384671
 C        -0.141330         0.076205        -0.394146
 O         0.389810         0.139725        -1.504058
 O        -0.807995         1.158938         0.087674
 C        -1.680361         1.328978         1.268507
 H        -3.562703         1.442749         2.701600
 H        -4.220034        -0.201843         2.984007
 H        -2.799183         0.230032         3.784892
 H        -3.925152        -1.400516         0.504152
 H        -2.965099        -0.300944        -0.642326
 H        -1.812853        -2.062813         1.822721
 H         0.446454        -1.558904         1.046722
 H        -0.448163        -1.958943        -0.376009
 H        -0.931680         1.528297         2.083519
 H        -2.284078         2.240794         1.107618
