19
Iteration:  1250
 C        -3.180893         0.124417         2.910924
 C        -2.491003         0.227020         1.541979
 C        -3.115564        -0.570534         0.330977
 C        -1.937442        -1.128743         1.013691
 C        -0.451313        -1.179745         0.504866
 C        -0.239093         0.065042        -0.349818
 O         0.551119         0.068991        -1.285769
 O        -1.061362         1.159282        -0.187606
 C        -1.499649         1.334065         1.242777
 H        -4.191920         0.415162         3.039205
 H        -3.203635        -0.941022         3.036384
 H        -2.581633         0.595433         3.684474
 H        -4.070221        -0.993765         0.726288
 H        -3.190090        -0.291855        -0.719600
 H        -1.975557        -1.957839         1.715755
 H         0.320687        -1.188761         1.382146
 H        -0.378505        -2.178630        -0.079272
 H        -0.703793         1.044704         1.855763
 H        -1.652649         2.427206         1.462692
