19
Iteration:  1878
 C        -2.923768         0.092942         2.937869
 C        -2.622117         0.166174         1.501208
 C        -3.337708        -0.751998         0.378053
 C        -1.993921        -1.210110         1.027783
 C        -0.509024        -1.040757         0.464339
 C        -0.179178         0.045222        -0.409676
 O         0.626642         0.151717        -1.331967
 O        -0.822540         1.182054         0.004570
 C        -1.732968         1.378525         1.105248
 H        -3.442934         1.059878         3.249827
 H        -3.605503        -0.739864         3.138747
 H        -2.076562        -0.033270         3.631333
 H        -4.025584        -1.473849         0.618431
 H        -3.178114        -0.371152        -0.669038
 H        -2.082038        -2.091649         1.717995
 H         0.103108        -0.742202         1.466613
 H        -0.019922        -1.993481         0.145186
 H        -1.385836         1.736076         2.064737
 H        -2.331121         2.187763         0.693719
