19
Iteration:  3578
 C        -3.269860         0.159744         2.976422
 C        -2.418559         0.088744         1.690802
 C        -3.187618        -0.145479         0.391305
 C        -2.061955        -1.216393         0.882470
 C        -0.702482        -1.290159         0.163008
 C        -0.261913        -0.046042        -0.492978
 O         0.615626         0.150842        -1.332383
 O        -0.751667         1.131241         0.055547
 C        -1.382437         1.159597         1.404894
 H        -4.268736         0.206255         2.634555
 H        -3.223730        -0.610140         3.784200
 H        -3.024864         1.079688         3.517891
 H        -4.206652        -0.562485         0.096928
 H        -3.002779         0.415437        -0.479549
 H        -2.273283        -2.032159         1.517204
 H         0.084754        -1.638126         0.950183
 H        -0.609449        -2.132029        -0.535898
 H        -0.678666         1.136410         2.234573
 H        -1.956381         2.138225         1.402632
