19
Iteration:   787charge 0 multiplicity 1
 C        -2.915122         0.393892         2.935093
 C        -2.531881         0.050536         1.458981
 C        -3.307258        -1.078023         0.925047
 C        -1.843143        -1.183130         0.960733
 C        -1.083121        -0.947179        -0.331064
 C        -0.080475         0.141553        -0.249170
 O         0.895621         0.102724        -0.987657
 O        -0.526756         1.245224         0.480745
 C        -2.053898         1.240552         0.557237
 H        -3.629774         1.277029         2.842007
 H        -3.339804        -0.509494         3.388551
 H        -2.040961         0.495941         3.594156
 H        -3.849702        -1.588449         1.680716
 H        -3.774361        -1.065561         0.004583
 H        -1.343958        -1.682775         1.753477
 H        -0.633840        -1.939273        -0.562184
 H        -1.711912        -0.523873        -1.159059
 H        -2.162197         2.321713         0.929593
 H        -2.371432         1.264338        -0.525314
