19
Iteration:  2398charge 0 multiplicity 1
 C        -3.040927         0.057750         2.974034
 C        -2.415439         0.114345         1.539424
 C        -3.136902        -0.667312         0.416822
 C        -1.878476        -1.195292         1.109950
 C        -0.620199        -1.236345         0.358136
 C        -0.234300         0.075623        -0.408703
 O         0.651625         0.125131        -1.219855
 O        -0.918420         1.309727        -0.065998
 C        -1.793945         1.398743         1.042178
 H        -4.052283         0.444340         3.029985
 H        -3.224769        -0.992179         3.316429
 H        -2.337937         0.552580         3.715477
 H        -4.236087        -1.039632         0.649606
 H        -3.029157        -0.215223        -0.586440
 H        -1.963666        -1.990869         1.871466
 H         0.180795        -1.367373         1.105388
 H        -0.467648        -2.013203        -0.432919
 H        -1.294321         2.129549         1.781494
 H        -2.621065         2.004392         0.625685
