19
Iteration:  4371
 C        -3.178511         0.159782         2.850352
 C        -2.418343         0.084789         1.544843
 C        -3.085167        -0.314751         0.279926
 C        -2.037210        -1.232886         0.928688
 C        -0.645710        -1.302599         0.278983
 C        -0.277469         0.021915        -0.397117
 O         0.460286         0.147965        -1.354632
 O        -0.797578         1.217779         0.183449
 C        -1.448467         1.218319         1.451850
 H        -4.147276         0.476588         2.602911
 H        -3.025484        -0.818106         3.211755
 H        -2.626748         0.909764         3.366917
 H        -4.105365        -0.611932         0.344034
 H        -2.712319         0.049849        -0.617774
 H        -2.586892        -2.030722         1.451193
 H         0.260260        -1.669901         0.856727
 H        -0.634258        -1.967319        -0.591907
 H        -0.623282         1.114627         2.189166
 H        -2.075004         2.119224         1.566827
