19
Iteration:  4526charge 0 multiplicity 1
 C        -3.327088        -0.000170         2.824771
 C        -2.474440         0.159082         1.558822
 C        -3.086560        -0.364423         0.273059
 C        -1.981091        -1.133131         1.059914
 C        -0.618913        -1.156463         0.313624
 C        -0.202603         0.058686        -0.402465
 O         0.320351        -0.005016        -1.434589
 O        -0.706766         1.296698         0.105771
 C        -1.370111         1.215139         1.446404
 H        -4.017265         0.878441         2.923891
 H        -3.869113        -0.995982         2.663172
 H        -2.585817        -0.138899         3.717129
 H        -4.100554        -0.512096         0.705775
 H        -2.861237        -0.063374        -0.729494
 H        -2.267161        -2.091509         1.448069
 H         0.168487        -1.450663         1.056690
 H        -0.573200        -1.973684        -0.423268
 H        -0.439710         1.053675         2.212860
 H        -1.309390         2.324038         1.679416
