19
Iteration:  2874charge 0 multiplicity 1
 C        -3.124960        -0.062514         2.854186
 C        -2.552261         0.108318         1.537262
 C        -3.128870        -0.649856         0.341801
 C        -1.878008        -1.188682         1.125244
 C        -0.488328        -1.009061         0.543604
 C        -0.180690         0.167891        -0.344282
 O         0.425949         0.026527        -1.384139
 O        -0.853515         1.298950        -0.051284
 C        -1.605182         1.355302         1.168858
 H        -4.092103         0.525584         2.975212
 H        -3.300516        -1.138077         2.933547
 H        -2.445151         0.360543         3.549924
 H        -4.052025        -1.292577         0.469492
 H        -3.107815        -0.284437        -0.631896
 H        -2.001219        -2.092335         1.712539
 H         0.277701        -1.002374         1.415466
 H        -0.284393        -1.891451        -0.138887
 H        -1.079886         1.806812         1.987162
 H        -2.337824         2.184876         0.856137
