19
Iteration:  1788
 C        -3.436586         0.354732         2.785426
 C        -2.523288         0.100201         1.595845
 C        -3.004432        -0.789538         0.408883
 C        -1.783405        -1.217208         1.114603
 C        -0.447693        -1.146805         0.413564
 C        -0.199185         0.066417        -0.395114
 O         0.353238         0.225827        -1.453902
 O        -0.897645         1.181638        -0.022791
 C        -1.442774         1.219232         1.331802
 H        -4.181435         1.044422         2.372697
 H        -3.872187        -0.620519         3.129261
 H        -2.960002         0.791165         3.696698
 H        -3.952451        -1.219448         0.800219
 H        -2.924595        -0.501606        -0.603794
 H        -1.847985        -2.158189         1.661553
 H         0.439280        -1.335325         1.159615
 H        -0.281017        -1.900306        -0.335049
 H        -0.597704         1.152362         2.014938
 H        -1.831531         2.223724         1.550015
