19
Iteration:  4807
 C        -3.162652         0.172934         2.825812
 C        -2.501119         0.157848         1.496908
 C        -3.108490        -0.512129         0.207146
 C        -2.074011        -1.315383         0.941506
 C        -0.709927        -1.209304         0.398488
 C        -0.228461         0.124022        -0.402247
 O         0.289345         0.130590        -1.464467
 O        -0.523261         1.269612         0.239945
 C        -1.403541         1.188641         1.422396
 H        -3.546985         1.130970         2.831068
 H        -3.924120        -0.484120         3.164217
 H        -2.438842         0.217117         3.622079
 H        -4.049882        -0.937306         0.340806
 H        -2.988373        -0.170345        -0.821015
 H        -2.478296        -2.039033         1.576618
 H        -0.052125        -1.512593         1.270318
 H        -0.603764        -2.047282        -0.285560
 H        -0.775247         1.009820         2.391537
 H        -1.899923         2.190792         1.702640
