19
Iteration:  1689
 C        -3.270617         0.048723         2.899603
 C        -2.445784         0.111676         1.573992
 C        -2.987750        -0.636693         0.255026
 C        -1.802504        -1.125780         1.100615
 C        -0.428946        -1.111476         0.591785
 C        -0.222573        -0.002926        -0.400748
 O         0.300947         0.010724        -1.499531
 O        -0.798204         1.268533         0.008514
 C        -1.700723         1.426960         1.252333
 H        -3.793603         1.001186         2.968930
 H        -4.045744        -0.734449         2.804093
 H        -2.619142        -0.052704         3.794303
 H        -3.974209        -0.979104         0.466586
 H        -2.717471        -0.072306        -0.658574
 H        -2.027801        -2.068805         1.528420
 H         0.405843        -0.912764         1.430388
 H        -0.281888        -2.100008         0.153452
 H        -1.086918         1.722138         2.108362
 H        -2.360563         2.237105         0.867870
