19
Iteration:  1636charge 0 multiplicity 1
 C        -3.304993         0.425919         2.758685
 C        -2.525457         0.104093         1.509041
 C        -2.993523        -0.816949         0.440763
 C        -1.820796        -1.256956         1.086990
 C        -0.466145        -1.159151         0.388369
 C        -0.234576         0.142531        -0.419131
 O         0.427671         0.129829        -1.415583
 O        -1.010212         1.250887         0.026976
 C        -1.468501         1.152455         1.380613
 H        -4.152701         1.115050         2.549874
 H        -3.744249        -0.463712         3.278894
 H        -2.656081         0.945445         3.494246
 H        -3.846497        -1.507414         0.397358
 H        -2.745355        -0.408473        -0.590625
 H        -1.986075        -1.987556         1.855429
 H         0.381102        -1.219869         1.059657
 H        -0.354950        -1.957567        -0.313277
 H        -0.612966         1.134215         2.164847
 H        -1.965060         2.192223         1.458461
