19
Iteration:  3030charge 0 multiplicity 1
 C        -3.081719         0.132791         2.833472
 C        -2.465590         0.090913         1.440806
 C        -3.048289        -0.620123         0.295638
 C        -1.812833        -1.303091         1.029464
 C        -0.407794        -1.167823         0.573670
 C        -0.284434         0.123388        -0.330958
 O         0.359823         0.107295        -1.395123
 O        -0.844097         1.326962         0.067230
 C        -1.774467         1.299402         1.206469
 H        -4.164562         0.250090         2.866820
 H        -2.965111        -0.746998         3.501502
 H        -2.666647         1.007611         3.363167
 H        -3.967349        -1.234472         0.569933
 H        -3.014632        -0.099785        -0.613253
 H        -2.296947        -2.146766         1.542381
 H         0.434792        -1.301682         1.369958
 H        -0.204939        -2.008036        -0.166879
 H        -1.177545         1.607214         2.117093
 H        -2.491235         2.100059         0.993507
