19
Iteration:  4437charge 0 multiplicity 1
 C        -3.209133         0.125095         2.773027
 C        -2.452239         0.183499         1.515131
 C        -3.162702        -0.483346         0.229401
 C        -2.042723        -1.207342         0.948033
 C        -0.583432        -1.198618         0.387696
 C        -0.286493         0.109296        -0.403684
 O         0.302722         0.127265        -1.448501
 O        -0.636352         1.210520         0.234418
 C        -1.346168         1.194951         1.423458
 H        -3.476962         1.090834         3.191777
 H        -4.167523        -0.392340         2.837370
 H        -2.661102        -0.163502         3.664907
 H        -4.116577        -0.842763         0.404714
 H        -2.823759        -0.318549        -0.774847
 H        -2.238844        -2.073454         1.589184
 H         0.161525        -1.322218         1.218339
 H        -0.481513        -2.108192        -0.185867
 H        -0.767003         0.912110         2.356444
 H        -1.857921         2.173807         1.526929
