19
Iteration:  1608
 C        -3.319522         0.295514         2.801706
 C        -2.381326         0.022956         1.632160
 C        -2.994514        -0.599264         0.457668
 C        -1.809606        -1.255395         1.171291
 C        -0.529047        -1.262917         0.408418
 C        -0.265788         0.030259        -0.416533
 O         0.453956         0.270683        -1.384464
 O        -0.888006         1.177996        -0.067344
 C        -1.603811         1.255160         1.236637
 H        -4.127401         0.889059         2.341466
 H        -3.765126        -0.449267         3.438723
 H        -2.853144         0.977943         3.513701
 H        -3.864519        -1.244895         0.418860
 H        -2.788115        -0.277235        -0.515502
 H        -2.187991        -2.055927         1.838927
 H         0.458790        -1.355346         0.964207
 H        -0.571524        -2.152272        -0.295480
 H        -0.956948         1.701724         1.954484
 H        -2.315941         1.988436         0.958727
