19
Iteration:  4004charge 0 multiplicity 1
 C        -3.118257         0.105011         2.892227
 C        -2.437375         0.116630         1.451956
 C        -3.282450        -0.368043         0.304675
 C        -2.098228        -1.197788         0.907247
 C        -0.727933        -1.260614         0.265066
 C        -0.181393         0.080897        -0.331696
 O         0.443952         0.040938        -1.384082
 O        -0.592095         1.309219         0.228518
 C        -1.460585         1.216510         1.387916
 H        -4.174191        -0.104677         2.779519
 H        -2.636886        -0.671607         3.524955
 H        -3.012581         1.160053         3.112095
 H        -4.249561        -0.729349         0.450990
 H        -3.150819        -0.010436        -0.744319
 H        -2.440138        -2.166812         1.415896
 H        -0.061161        -1.671569         1.150896
 H        -0.563170        -2.035998        -0.541029
 H        -0.708684         1.049266         2.171540
 H        -1.715542         2.309066         1.527915
