19
Iteration:  1630charge 0 multiplicity 1
 C        -3.316793         0.458310         2.774391
 C        -2.522635         0.078848         1.537212
 C        -2.986631        -0.792849         0.394887
 C        -1.786159        -1.278808         1.152106
 C        -0.459861        -1.189076         0.383648
 C        -0.237796         0.116838        -0.405603
 O         0.443818         0.165099        -1.434573
 O        -1.021515         1.235307         0.041726
 C        -1.485526         1.169896         1.326468
 H        -4.196607         1.090340         2.579642
 H        -3.647224        -0.422737         3.308129
 H        -2.735242         0.954060         3.553245
 H        -4.023806        -1.178132         0.326637
 H        -2.785227        -0.385334        -0.555604
 H        -1.918531        -2.153240         1.841731
 H         0.453070        -1.339443         1.023555
 H        -0.365543        -1.951236        -0.444405
 H        -0.803763         1.143648         2.152963
 H        -1.958364         2.114879         1.424427
