19
Iteration:  1779
 C        -3.358819         0.343991         2.799543
 C        -2.478879         0.093540         1.519778
 C        -3.114383        -0.783582         0.400522
 C        -1.827454        -1.216391         1.139655
 C        -0.398288        -1.099928         0.423522
 C        -0.195382         0.157222        -0.413644
 O         0.372290         0.121896        -1.508537
 O        -0.855282         1.267561         0.005951
 C        -1.488839         1.189825         1.402441
 H        -4.264899         0.935244         2.496970
 H        -3.892265        -0.608214         2.846317
 H        -3.068651         0.774076         3.751079
 H        -3.856042        -1.525046         0.713656
 H        -3.039399        -0.807398        -0.655678
 H        -2.024459        -2.106587         1.788857
 H         0.427582        -1.111777         1.309490
 H        -0.330684        -1.997130        -0.191975
 H        -0.667980         0.901519         2.055660
 H        -1.973587         2.143881         1.542493
