19
Iteration:  3321
 C        -3.227393         0.130344         2.775800
 C        -2.523093         0.107047         1.459966
 C        -3.174426        -0.562753         0.289827
 C        -2.007451        -1.202234         1.054307
 C        -0.569062        -1.164359         0.414794
 C        -0.211933         0.113408        -0.394714
 O         0.306426         0.104649        -1.473618
 O        -0.567980         1.270287         0.153604
 C        -1.469814         1.271752         1.454071
 H        -3.904897        -0.768693         2.733002
 H        -2.457508        -0.268841         3.398929
 H        -3.839058         0.923002         3.177205
 H        -4.111739        -1.012245         0.533484
 H        -3.098037        -0.276508        -0.807682
 H        -2.166510        -2.022027         1.753932
 H         0.173489        -1.357635         1.286853
 H        -0.384710        -2.016465        -0.344099
 H        -0.639456         1.235134         2.235747
 H        -1.950361         2.291725         1.386399
