19
Iteration:  3564
 C        -3.227963         0.240578         3.029329
 C        -2.469762         0.043388         1.675388
 C        -3.105968        -0.253922         0.356035
 C        -2.118863        -1.170403         0.914321
 C        -0.762870        -1.303782         0.158584
 C        -0.176843         0.013115        -0.513261
 O         0.672795         0.204211        -1.378850
 O        -0.769050         1.038563         0.132047
 C        -1.482232         1.141120         1.355532
 H        -4.312096         0.460774         2.886326
 H        -3.170783        -0.672605         3.596879
 H        -2.835993         1.094485         3.537447
 H        -4.098275        -0.441435         0.590094
 H        -2.734317         0.439571        -0.389721
 H        -2.626727        -2.143708         1.032501
 H         0.022032        -1.311999         0.932776
 H        -0.744882        -2.196398        -0.439427
 H        -0.685741         1.196772         2.048666
 H        -1.893449         2.198610         1.327019
