19
Iteration:  2534charge 0 multiplicity 1
 C        -3.307991         0.122576         2.779923
 C        -2.443641        -0.005001         1.617742
 C        -2.941962        -0.391778         0.304142
 C        -1.778470        -1.204818         0.933133
 C        -0.318546        -1.069166         0.653336
 C        -0.162484         0.058177        -0.393110
 O         0.133134        -0.053498        -1.583472
 O        -0.810159         1.209262         0.103858
 C        -1.648547         1.320581         1.333212
 H        -4.179660         0.922287         2.666268
 H        -3.794968        -0.818257         3.125743
 H        -2.626595         0.352634         3.604871
 H        -3.847281        -0.979368         0.301898
 H        -2.744176         0.153557        -0.536731
 H        -2.128269        -2.112493         1.446719
 H         0.118822        -0.876878         1.592517
 H         0.112238        -1.975807         0.312942
 H        -1.106056         1.866057         2.170393
 H        -2.517492         2.037815         1.125226
