19
Iteration:  2450
 C        -3.243611         0.349311         2.812832
 C        -2.471768         0.019069         1.552228
 C        -3.097864        -0.857373         0.474549
 C        -1.840190        -1.310786         1.170165
 C        -0.580676        -1.153656         0.324631
 C        -0.263325         0.122460        -0.455922
 O         0.505878         0.228973        -1.379744
 O        -0.788868         1.278534         0.040850
 C        -1.633524         1.288999         1.263566
 H        -3.891577         1.168525         2.540188
 H        -3.899000        -0.500220         3.009898
 H        -2.544456         0.623809         3.600552
 H        -4.066781        -1.304158         0.743746
 H        -3.092991        -0.640274        -0.540649
 H        -1.970273        -2.290978         1.676304
 H         0.379857        -1.244072         0.966003
 H        -0.473121        -1.932753        -0.504387
 H        -0.904700         1.358802         2.024234
 H        -2.197672         2.186849         1.088963
