19
Iteration:   337
 C        -2.899444         0.181954         2.988955
 C        -2.346660         0.056041         1.567663
 C        -3.358951        -0.502516         0.620334
 C        -2.068237        -1.256426         0.837119
 C        -0.837138        -1.319115        -0.044776
 C        -0.144206         0.004353        -0.344308
 O         0.947544         0.188689        -0.920803
 O        -0.824671         1.186982         0.012570
 C        -1.867468         1.425723         0.977683
 H        -2.284574         0.914532         3.681571
 H        -3.917001         0.450074         3.197841
 H        -2.750419        -0.759104         3.510083
 H        -4.296676        -0.989303         0.989770
 H        -3.626954        -0.005604        -0.312188
 H        -2.328861        -2.035950         1.464832
 H        -0.051454        -1.951454         0.441710
 H        -1.047577        -1.692169        -1.097034
 H        -1.427467         2.006826         1.824764
 H        -2.711205         2.007548         0.494745
