19
Iteration:  2341
 C        -3.026438         0.292005         2.964511
 C        -2.558537         0.042685         1.567186
 C        -3.284934        -0.673241         0.504628
 C        -1.943980        -1.292468         1.020514
 C        -0.561264        -1.185388         0.362522
 C        -0.126357         0.111780        -0.465474
 O         0.802773         0.351045        -1.211149
 O        -1.024400         1.106413        -0.164670
 C        -1.755460         1.228447         1.152272
 H        -3.201259         1.333330         3.119000
 H        -3.889846        -0.344179         3.224828
 H        -2.314431         0.069240         3.776445
 H        -4.114437        -1.258097         0.672842
 H        -3.195785        -0.295402        -0.510457
 H        -1.973149        -2.136461         1.731098
 H         0.284952        -1.371992         1.091640
 H        -0.360037        -2.001264        -0.446232
 H        -0.966390         1.336136         1.981383
 H        -2.402805         2.104631         0.978088
