19
Iteration:  3836
 C        -3.174218         0.113779         2.970607
 C        -2.455718         0.087988         1.537679
 C        -3.221775        -0.361181         0.324740
 C        -2.141704        -1.179520         0.883378
 C        -0.779230        -1.203579         0.304177
 C        -0.231323         0.005628        -0.448796
 O         0.521187         0.075554        -1.418080
 O        -0.571560         1.210869         0.162121
 C        -1.398670         1.245917         1.394455
 H        -4.259339        -0.017176         2.755816
 H        -2.899639        -0.609601         3.763487
 H        -3.185331         1.173386         3.305197
 H        -4.166436        -0.851405         0.435216
 H        -3.133309         0.318916        -0.566812
 H        -2.497407        -2.096801         1.250096
 H        -0.072733        -1.365561         1.234290
 H        -0.496918        -2.071751        -0.291397
 H        -0.549921         1.238560         2.126384
 H        -1.854712         2.225279         1.371087
