19
Iteration:  2437charge 0 multiplicity 1
 C        -3.249066         0.341553         2.883360
 C        -2.459756         0.026919         1.600947
 C        -3.183600        -0.756168         0.459186
 C        -1.845279        -1.225586         1.091673
 C        -0.464782        -1.225356         0.287730
 C        -0.159571         0.132747        -0.480352
 O         0.589268         0.214868        -1.448186
 O        -0.859950         1.198939         0.091753
 C        -1.732653         1.264293         1.241668
 H        -3.995441         1.183180         2.704023
 H        -3.705678        -0.554540         3.349222
 H        -2.658054         0.718207         3.711439
 H        -3.961501        -1.339046         0.729145
 H        -3.089164        -0.412889        -0.539418
 H        -1.852071        -1.948512         1.919167
 H         0.410867        -1.534508         0.955059
 H        -0.580124        -2.072522        -0.409402
 H        -1.287315         1.671053         2.109453
 H        -2.569586         2.006316         1.043762
