19
Iteration:  2076charge 0 multiplicity 1
 C        -3.198680        -0.027845         2.814459
 C        -2.466088         0.050314         1.547607
 C        -3.066400        -0.625033         0.354828
 C        -1.848241        -1.159803         1.142304
 C        -0.467064        -1.015777         0.633265
 C        -0.279097         0.089648        -0.437998
 O         0.337725         0.018296        -1.453590
 O        -0.779712         1.314072        -0.057976
 C        -1.656049         1.351309         1.223665
 H        -3.586655         0.955834         3.238920
 H        -4.163536        -0.535830         2.786895
 H        -2.542713        -0.505297         3.553761
 H        -3.935867        -1.191075         0.157378
 H        -2.685614        -0.311843        -0.634536
 H        -2.113491        -1.945584         1.808186
 H         0.115984        -0.682570         1.445714
 H         0.067587        -1.953011         0.416033
 H        -0.831983         1.689506         1.924717
 H        -2.240118         2.245169         1.027116
