19
Iteration:  1798
 C        -3.468697         0.324077         2.738880
 C        -2.404765         0.074766         1.591978
 C        -2.952421        -0.696691         0.436521
 C        -1.767461        -1.267954         1.171459
 C        -0.450083        -1.225996         0.393405
 C        -0.274028         0.096326        -0.419409
 O         0.396695         0.258759        -1.431500
 O        -0.972409         1.146982         0.013695
 C        -1.449631         1.237657         1.280629
 H        -4.244496         1.074339         2.571975
 H        -4.010887        -0.472446         3.316337
 H        -2.754067         0.845538         3.445368
 H        -3.963270        -1.193125         0.434573
 H        -2.926198        -0.119638        -0.446171
 H        -1.852330        -2.126269         1.825790
 H         0.435884        -1.327092         1.118449
 H        -0.482872        -2.077398        -0.258538
 H        -0.683797         1.169204         2.054954
 H        -1.868072         2.264907         1.182024
