19
Iteration:  1611charge 0 multiplicity 1
 C        -3.329712         0.317778         2.808450
 C        -2.382313         0.001201         1.616543
 C        -2.996174        -0.598268         0.427161
 C        -1.800846        -1.267580         1.203048
 C        -0.517428        -1.252181         0.400674
 C        -0.268613         0.036716        -0.407551
 O         0.442184         0.279942        -1.384306
 O        -0.879207         1.168904        -0.078130
 C        -1.625003         1.236972         1.251005
 H        -4.109203         0.914335         2.343248
 H        -3.803297        -0.423715         3.481210
 H        -2.810990         1.040721         3.514389
 H        -3.927032        -1.208280         0.452267
 H        -2.772932        -0.306902        -0.609857
 H        -2.144745        -2.093949         1.825519
 H         0.547527        -1.374394         0.972371
 H        -0.615725        -2.141666        -0.283796
 H        -0.803749         1.638417         1.964184
 H        -2.288282         2.114144         1.032156
