19
Iteration:  4132
 C        -3.300927         0.045598         2.863934
 C        -2.530497         0.154785         1.540306
 C        -3.227224        -0.308746         0.294105
 C        -2.053720        -1.146487         0.874305
 C        -0.529894        -1.251523         0.280875
 C        -0.200973         0.016056        -0.418168
 O         0.358553         0.047012        -1.485689
 O        -0.531502         1.230467         0.255524
 C        -1.414670         1.244710         1.482204
 H        -4.157790        -0.621257         2.914288
 H        -2.759932        -0.084227         3.857561
 H        -3.776363         1.053941         2.988425
 H        -4.106856        -0.807972         0.617987
 H        -3.209284         0.231586        -0.678241
 H        -2.359563        -2.163956         1.244481
 H         0.149810        -1.333045         1.095827
 H        -0.382244        -2.082563        -0.374826
 H        -0.643308         1.039768         2.289788
 H        -1.649187         2.313014         1.598678
