19
Iteration:  4110
 C        -3.205850         0.164450         2.820740
 C        -2.557334         0.095194         1.515864
 C        -3.163276        -0.388384         0.222430
 C        -2.104939        -1.167779         0.907277
 C        -0.678562        -1.127390         0.426468
 C        -0.190952         0.039377        -0.417305
 O         0.346546         0.125399        -1.499603
 O        -0.565187         1.224496         0.259764
 C        -1.343587         1.073511         1.424957
 H        -4.255690        -0.162378         2.898965
 H        -2.775369        -0.411365         3.726376
 H        -3.330573         1.109930         3.416620
 H        -4.129063        -0.845374         0.335912
 H        -2.801719        -0.006944        -0.777975
 H        -2.196017        -2.192704         1.381316
 H        -0.022144        -1.227392         1.258047
 H        -0.464333        -1.928528        -0.233880
 H        -0.607726         0.747335         2.268759
 H        -1.746536         2.092705         1.637508
