19
Iteration:  4537charge 0 multiplicity 1
 C        -3.261051         0.036132         2.804275
 C        -2.436516         0.159086         1.550407
 C        -3.074722        -0.379869         0.323888
 C        -1.982559        -1.178041         0.989939
 C        -0.678999        -1.206756         0.330754
 C        -0.316963         0.108739        -0.384654
 O         0.382091        -0.002859        -1.423767
 O        -0.719085         1.318024         0.121692
 C        -1.310272         1.221925         1.439427
 H        -4.083827         0.805115         2.831890
 H        -3.815218        -0.928489         2.967106
 H        -2.702567         0.246706         3.772106
 H        -4.122881        -0.781891         0.215151
 H        -2.804960         0.015164        -0.646920
 H        -2.283340        -2.061751         1.519479
 H         0.149814        -1.440172         1.041273
 H        -0.642943        -1.928008        -0.494381
 H        -0.510850         0.755389         2.152338
 H        -1.819376         2.183730         1.711139
