19
Iteration:  4539
 C        -3.262803         0.059167         2.821007
 C        -2.412462         0.154655         1.542007
 C        -3.078072        -0.388886         0.326790
 C        -2.008004        -1.188482         0.978167
 C        -0.679175        -1.213431         0.330075
 C        -0.324890         0.114186        -0.397042
 O         0.385029         0.007893        -1.410905
 O        -0.721671         1.313290         0.121980
 C        -1.306074         1.217184         1.445467
 H        -4.077754         0.782078         2.780829
 H        -3.744533        -0.912430         2.956065
 H        -2.676811         0.267431         3.711666
 H        -4.081511        -0.843806         0.118182
 H        -2.825398         0.107042        -0.630600
 H        -2.244611        -2.061424         1.571580
 H         0.191077        -1.433900         1.043617
 H        -0.665828        -1.968111        -0.488149
 H        -0.538883         0.798191         2.189246
 H        -1.853551         2.116502         1.698162
