19
Iteration:  1369
 C        -3.135763         0.137878         2.775945
 C        -2.446817         0.130673         1.472371
 C        -3.091655        -0.772525         0.386603
 C        -1.877791        -1.156999         1.141372
 C        -0.587005        -1.144889         0.418510
 C        -0.251907         0.106495        -0.340154
 O         0.212330        -0.015381        -1.433118
 O        -0.469477         1.358026         0.330362
 C        -1.735338         1.384935         0.997883
 H        -3.824949         1.000306         2.991810
 H        -3.793409        -0.757869         2.837406
 H        -2.359547         0.209346         3.586696
 H        -3.970908        -1.333998         0.751858
 H        -3.090460        -0.628561        -0.667208
 H        -1.868200        -1.910925         1.929275
 H         0.191835        -1.299651         1.109100
 H        -0.486965        -1.975938        -0.340824
 H        -1.491631         2.126155         1.803273
 H        -2.432472         1.902156         0.305094
