19
Iteration:  1870charge 0 multiplicity 1
 C        -2.996971         0.073301         2.959505
 C        -2.596490         0.147524         1.458656
 C        -3.243355        -0.743153         0.380172
 C        -1.973296        -1.164273         1.033432
 C        -0.600618        -1.053739         0.523293
 C        -0.153678         0.103303        -0.441671
 O         0.646660         0.134846        -1.378957
 O        -0.830444         1.170979         0.021001
 C        -1.731027         1.361013         1.139038
 H        -3.549445         0.932105         3.342919
 H        -3.617394        -0.789632         3.131883
 H        -2.044516         0.082436         3.476108
 H        -4.036700        -1.493021         0.676237
 H        -3.512127        -0.552517        -0.661316
 H        -2.032507        -1.825941         1.875228
 H         0.028003        -0.751491         1.420543
 H        -0.137567        -1.977781         0.034097
 H        -1.038354         1.666094         1.954971
 H        -2.334930         2.167522         0.724700
