19
Iteration:  2194
 C        -3.245769         0.142190         2.813134
 C        -2.458582         0.134673         1.487600
 C        -2.968437        -0.781622         0.287457
 C        -1.850819        -1.195527         1.161697
 C        -0.458070        -1.221173         0.453835
 C        -0.269756         0.125548        -0.375320
 O         0.233947         0.084193        -1.495757
 O        -0.695531         1.309341         0.187273
 C        -1.657512         1.413331         1.234633
 H        -4.366354         0.257109         2.718905
 H        -3.093855        -0.779340         3.365093
 H        -2.966341         0.909570         3.531432
 H        -3.950567        -1.181293         0.147341
 H        -2.779829        -0.269274        -0.702594
 H        -2.087652        -1.989763         1.856791
 H         0.458383        -1.295289         1.235464
 H        -0.312666        -2.111325        -0.168796
 H        -1.061849         1.491123         2.193604
 H        -2.310615         2.303784         0.886407
