19
Iteration:  1512charge 0 multiplicity 1
 C        -3.029828         0.312874         2.968526
 C        -2.455036         0.020446         1.563544
 C        -3.124783        -0.543074         0.354929
 C        -1.883684        -1.285390         0.931742
 C        -0.454246        -1.121448         0.448064
 C        -0.200374         0.105900        -0.264961
 O         0.546540         0.095955        -1.259685
 O        -1.000005         1.165022        -0.119289
 C        -1.764442         1.238525         1.143916
 H        -3.312179         1.385383         2.972772
 H        -4.005261        -0.188696         3.143291
 H        -2.500987         0.082967         3.944541
 H        -4.004412        -1.132815         0.574734
 H        -3.214167        -0.209806        -0.659919
 H        -2.140252        -2.228232         1.470916
 H         0.035096        -1.443736         1.340581
 H        -0.106382        -1.809804        -0.372129
 H        -0.904089         1.565100         1.902352
 H        -2.406483         2.103375         0.879715
