19
Iteration:  1615
 C        -3.336165         0.371404         2.827127
 C        -2.399625        -0.011799         1.602200
 C        -3.004860        -0.627436         0.360003
 C        -1.789081        -1.288366         1.253189
 C        -0.472515        -1.240552         0.390400
 C        -0.263285         0.060007        -0.413024
 O         0.426682         0.272650        -1.383464
 O        -0.884858         1.158931        -0.069313
 C        -1.639331         1.231939         1.267975
 H        -4.149246         0.973210         2.365390
 H        -3.805135        -0.432074         3.445924
 H        -2.771368         1.062547         3.458911
 H        -3.993187        -1.056183         0.564494
 H        -2.743501        -0.316208        -0.703611
 H        -1.978948        -2.228536         1.773081
 H         0.402935        -1.409770         0.902672
 H        -0.608331        -2.041701        -0.274959
 H        -0.707550         1.400904         1.925356
 H        -2.219760         2.235581         1.217695
