19
Iteration:  2500
 C        -3.402038         0.169902         2.780488
 C        -2.467357         0.121865         1.534497
 C        -2.931297        -0.639702         0.336664
 C        -1.785669        -1.175762         1.135570
 C        -0.428769        -1.093133         0.531478
 C        -0.254401         0.082812        -0.402310
 O         0.251156         0.075473        -1.520880
 O        -0.887870         1.220046         0.042074
 C        -1.489120         1.244812         1.348751
 H        -3.928917         1.180596         2.835351
 H        -4.018862        -0.744103         2.762523
 H        -2.658787         0.143184         3.577494
 H        -3.833020        -1.195457         0.345570
 H        -2.705266        -0.236492        -0.686672
 H        -1.870501        -1.950147         1.884799
 H         0.345995        -0.936395         1.254349
 H        -0.196655        -1.960583        -0.026616
 H        -0.640812         1.210547         2.110715
 H        -1.975525         2.267312         1.301480
