19
Iteration:  1620
 C        -3.340637         0.428480         2.829553
 C        -2.442026         0.004724         1.592572
 C        -3.008794        -0.683843         0.305913
 C        -1.774385        -1.307459         1.274353
 C        -0.452554        -1.214729         0.377535
 C        -0.253598         0.083453        -0.422106
 O         0.425026         0.243765        -1.395815
 O        -0.922882         1.168181        -0.031954
 C        -1.614935         1.239248         1.279124
 H        -4.182572         1.009820         2.440840
 H        -3.732241        -0.440766         3.340410
 H        -2.716173         1.069560         3.472920
 H        -4.034479        -0.905482         0.608797
 H        -2.753228        -0.334093        -0.657344
 H        -1.814756        -2.320218         1.728327
 H         0.480873        -1.499771         1.024403
 H        -0.545251        -2.030578        -0.417366
 H        -0.770237         1.128225         1.928688
 H        -2.089870         2.171214         1.415157
