19
Iteration:  3450charge 0 multiplicity 1
 C        -3.156859         0.270195         2.960085
 C        -2.434063         0.069376         1.570805
 C        -3.063370        -0.305565         0.303546
 C        -2.048459        -1.270155         0.811357
 C        -0.645820        -1.336642         0.241308
 C        -0.241141         0.024841        -0.381802
 O         0.462074         0.152306        -1.366706
 O        -0.771266         1.173345         0.140390
 C        -1.511725         1.209898         1.434998
 H        -2.673924         0.952952         3.652202
 H        -4.212226         0.385392         2.752400
 H        -3.219029        -0.688858         3.532483
 H        -4.084278        -0.824494         0.222873
 H        -2.750047         0.263357        -0.551707
 H        -2.399149        -2.029327         1.505807
 H         0.022491        -1.453995         1.032121
 H        -0.465682        -2.123774        -0.520234
 H        -0.833802         1.263405         2.259812
 H        -1.980914         2.137585         1.336186
