19
Iteration:   347
 C        -2.860876         0.091009         2.997945
 C        -2.436512         0.110037         1.567569
 C        -3.420622        -0.560733         0.585662
 C        -2.100323        -1.199185         0.891082
 C        -0.843739        -1.288983         0.029487
 C        -0.135071         0.054997        -0.362688
 O         0.911707         0.180534        -0.924309
 O        -0.752026         1.236473        -0.043687
 C        -1.808496         1.375754         1.006391
 H        -2.057145         0.653036         3.591933
 H        -3.770087         0.614402         2.962770
 H        -2.988513        -0.897687         3.344988
 H        -4.297207        -1.150790         0.997204
 H        -3.526920         0.104186        -0.270937
 H        -2.143088        -2.086473         1.432524
 H        -0.130235        -1.919363         0.568027
 H        -1.084654        -1.942696        -0.868258
 H        -1.432252         2.151620         1.671980
 H        -2.600951         1.847846         0.370645
