19
Iteration:  1306charge 0 multiplicity 1
 C        -3.343073         0.405424         2.876933
 C        -2.516727         0.070207         1.588249
 C        -3.082025        -0.699031         0.419004
 C        -1.814039        -1.279390         1.062826
 C        -0.395011        -1.216302         0.378349
 C        -0.174005         0.098085        -0.396003
 O         0.419680         0.126350        -1.499105
 O        -0.852184         1.169112         0.073490
 C        -1.625241         1.327251         1.281661
 H        -3.604319         1.413290         2.707597
 H        -4.233484        -0.190765         3.032645
 H        -2.746941         0.289300         3.784946
 H        -3.896182        -1.438982         0.459400
 H        -2.946033        -0.326479        -0.567223
 H        -1.856724        -2.111563         1.800084
 H         0.515944        -1.469795         1.102169
 H        -0.387717        -2.085072        -0.359687
 H        -1.028127         1.502302         2.124870
 H        -2.258692         2.251351         1.074735
