19
Iteration:  3239
 C        -3.149182         0.168975         2.868738
 C        -2.457767         0.110862         1.543489
 C        -3.033445        -0.539853         0.223058
 C        -1.947894        -1.281264         1.022496
 C        -0.560556        -1.206770         0.405028
 C        -0.339668         0.048478        -0.401758
 O         0.475385         0.203841        -1.321903
 O        -0.919231         1.203720         0.076617
 C        -1.465644         1.284876         1.324894
 H        -3.542195         1.167570         2.952398
 H        -4.023986        -0.525906         3.027321
 H        -2.371801        -0.068330         3.640864
 H        -4.077264        -0.878449         0.326568
 H        -2.793382        -0.191233        -0.775053
 H        -2.258432        -2.232003         1.553062
 H         0.248261        -1.387880         1.134389
 H        -0.454559        -1.958068        -0.343501
 H        -0.720066         1.481463         2.143301
 H        -2.220748         2.088176         1.319794
