19
Iteration:  2650
 C        -3.250847         0.259758         2.820201
 C        -2.480454         0.060578         1.607063
 C        -2.978525        -0.655528         0.441881
 C        -1.813712        -1.246281         1.170311
 C        -0.524689        -1.209002         0.337555
 C        -0.251757         0.056346        -0.418728
 O         0.516232         0.244164        -1.362283
 O        -0.923912         1.192645        -0.019195
 C        -1.674115         1.278183         1.229149
 H        -3.712349         1.224291         2.586685
 H        -4.029216        -0.523440         2.872249
 H        -2.599478         0.249288         3.743362
 H        -3.943525        -1.237725         0.661507
 H        -2.816643        -0.162220        -0.566280
 H        -2.018795        -2.155325         1.701332
 H         0.378364        -1.513725         0.990721
 H        -0.614692        -2.013111        -0.402373
 H        -0.927590         1.492489         2.025750
 H        -2.266683         2.162098         1.127060
