19
Iteration:  2016charge 0 multiplicity 1
 C        -3.117567         0.314233         2.890961
 C        -2.477083         0.031071         1.526623
 C        -3.126836        -0.664884         0.321499
 C        -1.861115        -1.263963         1.144175
 C        -0.480964        -1.215518         0.361703
 C        -0.264089         0.099485        -0.406631
 O         0.517975         0.219468        -1.314534
 O        -0.913275         1.177427         0.035634
 C        -1.699721         1.307655         1.174693
 H        -4.003774         0.861506         2.988754
 H        -3.095729        -0.725546         3.224637
 H        -2.379794         0.773690         3.557610
 H        -4.084268        -1.126396         0.517716
 H        -2.725718        -0.478790        -0.699427
 H        -2.117378        -2.211493         1.703481
 H         0.209836        -1.251866         1.204277
 H        -0.363036        -2.028545        -0.354288
 H        -1.091480         1.481928         2.051372
 H        -2.460927         2.098757         0.995905
