19
Iteration:  1042charge 0 multiplicity 1
 C        -2.572470         0.273552         3.015011
 C        -2.506172         0.115094         1.439680
 C        -3.470450        -0.856611         0.773770
 C        -1.995706        -1.241557         0.953422
 C        -0.889334        -1.174449        -0.112934
 C        -0.164910         0.180492        -0.216320
 O         0.862365         0.211300        -0.820139
 O        -0.632757         1.336910         0.192124
 C        -2.105133         1.183347         0.512211
 H        -3.311739         1.031299         3.298899
 H        -2.762879        -0.683178         3.523378
 H        -1.610304         0.585642         3.505477
 H        -4.276484        -1.524484         1.284544
 H        -3.821087        -0.618816        -0.243573
 H        -1.981648        -2.107128         1.721870
 H        -0.112564        -1.886109         0.189019
 H        -1.132442        -1.551293        -1.141490
 H        -2.340493         2.122929         0.978954
 H        -2.617212         1.150303        -0.534986
