19
Iteration:  3092charge 0 multiplicity 1
 C        -3.197905         0.141008         2.934906
 C        -2.507873         0.053913         1.589205
 C        -3.327317        -0.702627         0.532213
 C        -1.945785        -1.258577         1.032194
 C        -0.457394        -1.169468         0.334517
 C        -0.135133         0.129611        -0.431443
 O         0.698674         0.235425        -1.288802
 O        -0.979863         1.259842        -0.174534
 C        -1.551230         1.309165         1.215845
 H        -3.834038        -0.824247         2.800729
 H        -2.632976         0.175764         3.874791
 H        -3.971999         0.915190         2.931304
 H        -4.315233        -1.162627         0.838817
 H        -3.382096        -0.217385        -0.448355
 H        -1.973390        -2.026531         1.777517
 H         0.244543        -1.133229         1.105410
 H        -0.275465        -2.074189        -0.298838
 H        -0.762245         1.011288         1.867432
 H        -1.885549         2.419549         1.352187
