19
Iteration:  2377charge 0 multiplicity 1
 C        -2.902002         0.072979         2.888784
 C        -2.507521         0.112359         1.420533
 C        -3.207054        -0.731190         0.493303
 C        -1.929662        -1.257734         1.075781
 C        -0.615725        -1.071061         0.371867
 C        -0.276755         0.163692        -0.379482
 O         0.680475         0.034041        -1.095962
 O        -0.924395         1.336100        -0.165892
 C        -1.796438         1.403623         1.125135
 H        -3.841415         0.622922         3.108341
 H        -3.151314        -0.992942         3.039956
 H        -1.944652         0.321885         3.438342
 H        -4.195698        -1.340666         0.741079
 H        -3.181132        -0.582620        -0.601010
 H        -1.975535        -2.003718         1.882882
 H         0.142631        -1.273134         1.065939
 H        -0.506157        -1.818190        -0.435380
 H        -0.951431         1.576103         1.909654
 H        -2.434545         2.300312         0.973428
