19
Iteration:  4318
 C        -3.173604         0.085693         2.938328
 C        -2.533320         0.074619         1.525436
 C        -3.356556        -0.359554         0.393346
 C        -2.040410        -1.166600         0.844273
 C        -0.676602        -1.208001         0.224122
 C        -0.155893         0.109555        -0.412592
 O         0.611816         0.063581        -1.307960
 O        -0.675211         1.268911         0.086910
 C        -1.452138         1.143328         1.378764
 H        -4.294094        -0.058552         2.825494
 H        -2.674557        -0.810523         3.443589
 H        -2.979116         1.100626         3.343696
 H        -4.350144        -0.678418         0.618532
 H        -3.294332         0.266863        -0.415457
 H        -2.336011        -2.009766         1.472996
 H         0.097494        -1.371644         1.069304
 H        -0.487158        -2.023155        -0.464746
 H        -0.696784         1.114966         2.251652
 H        -2.062543         2.039580         1.572651
