19
Iteration:  3341
 C        -3.154604         0.137194         2.823196
 C        -2.404521         0.085359         1.519277
 C        -3.044951        -0.489035         0.242188
 C        -1.946825        -1.182850         0.911228
 C        -0.559230        -1.284741         0.341380
 C        -0.274453         0.083463        -0.310506
 O         0.218203         0.057745        -1.369727
 O        -0.689179         1.271196         0.269743
 C        -1.527631         1.322297         1.309885
 H        -3.636121        -0.783514         3.171581
 H        -2.496605         0.544611         3.582805
 H        -3.956916         0.912482         2.611069
 H        -4.025961        -0.902073         0.207287
 H        -2.769833        -0.009260        -0.783873
 H        -2.192085        -2.052131         1.472685
 H         0.277737        -1.534989         1.058834
 H        -0.473728        -2.048611        -0.492199
 H        -0.917093         1.341061         2.311948
 H        -2.092693         2.246373         1.311594
