19
Iteration:  1701
 C        -3.249871         0.086900         2.907645
 C        -2.511533         0.169366         1.546420
 C        -2.926875        -0.537891         0.248074
 C        -1.789992        -1.085946         1.062748
 C        -0.288024        -1.128566         0.503946
 C        -0.304973         0.058126        -0.364241
 O         0.271757        -0.070788        -1.445681
 O        -0.847943         1.191277         0.131234
 C        -1.701626         1.383176         1.159973
 H        -3.850546         0.927330         3.289682
 H        -3.928724        -0.792020         2.899057
 H        -2.555591        -0.215566         3.711719
 H        -3.773438        -1.214083         0.101384
 H        -2.850794         0.027113        -0.662173
 H        -2.062424        -1.900692         1.718882
 H         0.516905        -1.145761         1.382884
 H        -0.085485        -1.989168        -0.127747
 H        -1.161099         1.952728         1.938412
 H        -2.522237         2.114123         0.887986
