19
Iteration:  3105
 C        -3.219977         0.133039         2.924105
 C        -2.454819         0.093007         1.564160
 C        -3.259072        -0.728281         0.523517
 C        -1.956843        -1.226209         1.008212
 C        -0.640343        -1.101386         0.362102
 C        -0.195933         0.166497        -0.442181
 O         0.719675         0.273629        -1.279320
 O        -0.925428         1.196982        -0.116043
 C        -1.483261         1.203188         1.175176
 H        -3.518863        -0.858434         3.366130
 H        -2.622265         0.591171         3.753225
 H        -4.075680         0.760614         2.789587
 H        -4.084617        -1.371803         0.977213
 H        -3.436091        -0.391836        -0.459196
 H        -2.027011        -2.127358         1.607539
 H         0.053549        -1.336667         1.156054
 H        -0.386362        -1.888062        -0.408013
 H        -0.713680         1.483501         1.865184
 H        -2.130861         2.174981         1.174715
