19
Iteration:  4745
 C        -3.309123         0.056865         2.931889
 C        -2.464813         0.169503         1.571365
 C        -3.073584        -0.397077         0.340352
 C        -2.064551        -1.188340         1.015983
 C        -0.713289        -1.296620         0.175898
 C        -0.273193         0.049537        -0.374883
 O         0.493199         0.114585        -1.395222
 O        -0.684525         1.218235         0.069555
 C        -1.376957         1.281001         1.446399
 H        -4.106304         0.932621         2.913578
 H        -3.883313        -0.922421         2.963814
 H        -2.584141         0.243268         3.810585
 H        -4.089377        -0.699892         0.307758
 H        -2.650656         0.096575        -0.523815
 H        -2.150123        -1.983030         1.715077
 H         0.118946        -1.582845         0.793980
 H        -0.750522        -1.972858        -0.703473
 H        -0.558723         1.191777         2.189573
 H        -1.739025         2.311254         1.345424
