19
Iteration:  1856charge 0 multiplicity 1
 C        -3.109310         0.079916         2.918185
 C        -2.567209         0.141984         1.488745
 C        -3.224093        -0.760526         0.412340
 C        -1.895389        -1.123197         1.088441
 C        -0.502246        -1.112843         0.470447
 C        -0.200328         0.089547        -0.408076
 O         0.581176         0.102049        -1.344301
 O        -0.821585         1.307780        -0.087110
 C        -1.714044         1.310105         1.133481
 H        -3.823475         0.895518         3.230914
 H        -3.525823        -0.909760         3.136460
 H        -2.267082         0.129429         3.629929
 H        -4.100701        -1.051096         0.874323
 H        -3.116114        -0.366055        -0.618040
 H        -2.003583        -2.033331         1.717171
 H         0.251723        -1.189603         1.396022
 H        -0.410621        -2.112055         0.000403
 H        -1.108258         1.380004         2.039769
 H        -2.259600         2.243437         1.125031
