19
Iteration:   495
 C        -3.366373         0.210658         2.723784
 C        -2.455462         0.079203         1.458481
 C        -2.876740        -0.577236         0.209165
 C        -1.874001        -1.282232         1.118488
 C        -0.473186        -1.083089         0.592973
 C        -0.341445         0.092616        -0.392277
 O         0.109786         0.040866        -1.481577
 O        -0.720794         1.285131         0.123914
 C        -1.417404         1.232073         1.383446
 H        -4.397790         0.157148         2.566384
 H        -3.070835        -0.782326         3.214069
 H        -2.965738         1.123015         3.316570
 H        -3.893137        -0.975244         0.285161
 H        -2.583431        -0.241634        -0.790074
 H        -2.115005        -2.206155         1.597996
 H         0.237329        -0.857318         1.501583
 H        -0.088956        -1.992197         0.140887
 H        -0.619863         1.287891         2.198097
 H        -1.845326         2.243872         1.443934
