19
Iteration:  4191charge 0 multiplicity 1
 C        -3.186077         0.201966         2.911082
 C        -2.532475         0.139815         1.614538
 C        -3.131434        -0.413979         0.231930
 C        -2.083371        -1.215687         0.866563
 C        -0.733379        -1.330072         0.106606
 C        -0.204682         0.069154        -0.379685
 O         0.525168         0.101916        -1.367324
 O        -0.699184         1.217100         0.199133
 C        -1.379295         1.234859         1.539745
 H        -3.219166        -0.829108         3.331120
 H        -2.734673         0.895627         3.618058
 H        -4.252565         0.495338         2.777845
 H        -4.192109        -0.693330         0.333000
 H        -3.039859         0.254508        -0.601899
 H        -2.495710        -2.063005         1.352615
 H         0.098400        -1.578573         0.818780
 H        -0.594672        -1.975473        -0.797496
 H        -0.674865         0.962247         2.346392
 H        -1.858262         2.232040         1.710966
