19
Iteration:  3113charge 0 multiplicity 1
 C        -3.180257         0.173140         2.902481
 C        -2.450818         0.032694         1.573977
 C        -3.186401        -0.691756         0.491597
 C        -1.935684        -1.216608         1.039177
 C        -0.643293        -1.101096         0.287721
 C        -0.178593         0.098529        -0.437861
 O         0.679066         0.267026        -1.233385
 O        -0.922573         1.232274        -0.095599
 C        -1.553743         1.204224         1.206314
 H        -3.353747        -0.849958         3.509342
 H        -2.557572         0.911837         3.432270
 H        -4.220148         0.591891         2.897729
 H        -4.100543        -1.168504         0.979863
 H        -3.351969        -0.533778        -0.577889
 H        -2.076345        -2.170792         1.497298
 H         0.112143        -1.226057         1.018148
 H        -0.691397        -1.985991        -0.395374
 H        -0.794089         1.412619         1.999534
 H        -2.279633         2.084751         1.023736
