19
Iteration:  1837
 C        -3.243069         0.167771         2.857860
 C        -2.417718         0.043453         1.551942
 C        -3.090277        -0.656804         0.429203
 C        -1.829788        -1.282220         1.101299
 C        -0.513986        -1.156603         0.387946
 C        -0.269478         0.179350        -0.348331
 O         0.499850         0.063048        -1.308599
 O        -0.942475         1.254451        -0.071733
 C        -1.588660         1.393340         1.178828
 H        -4.044863         0.904144         2.734491
 H        -3.651304        -0.799596         3.123615
 H        -2.619201         0.378149         3.712264
 H        -3.932901        -1.357026         0.506201
 H        -2.891549        -0.177732        -0.571061
 H        -2.052373        -1.980761         1.896591
 H         0.339176        -1.306612         1.051902
 H        -0.338443        -1.960302        -0.410277
 H        -0.777623         1.759997         1.851408
 H        -2.278542         2.237509         1.168513
