19
Iteration:  2160charge 0 multiplicity 1
 C        -3.456543         0.171069         2.702059
 C        -2.446134         0.117305         1.526589
 C        -3.041514        -0.824205         0.393056
 C        -1.777795        -1.209699         1.212804
 C        -0.405834        -1.139422         0.480654
 C        -0.278188         0.148428        -0.445343
 O         0.233263         0.079651        -1.562908
 O        -0.742516         1.339186         0.117183
 C        -1.444481         1.303413         1.327482
 H        -4.400311         0.438953         2.219941
 H        -3.561272        -0.857684         3.033353
 H        -3.257425         0.840575         3.554445
 H        -4.015904        -1.148960         0.659144
 H        -2.902018        -0.356177        -0.600845
 H        -1.915005        -2.034451         1.925661
 H         0.431333        -0.933004         1.303260
 H        -0.187831        -1.991416        -0.129006
 H        -0.643325         1.310396         2.118513
 H        -1.959493         2.267540         1.557764
