19
Iteration:  1979
 C        -3.286074         0.299963         2.834177
 C        -2.436632         0.098722         1.595712
 C        -3.201111        -0.727000         0.588763
 C        -1.849304        -1.308857         1.134700
 C        -0.555574        -1.195998         0.259136
 C        -0.186327         0.212252        -0.405461
 O         0.649774         0.192776        -1.249047
 O        -1.007671         1.295878        -0.166580
 C        -1.515657         1.158371         1.223371
 H        -4.308554         0.742618         2.571290
 H        -3.528327        -0.634687         3.369309
 H        -2.779496         0.913259         3.607586
 H        -4.074666        -1.362967         0.881924
 H        -3.291580        -0.579304        -0.477786
 H        -1.902830        -2.275675         1.632859
 H         0.442497        -1.711077         0.697179
 H        -0.563216        -1.790198        -0.740705
 H        -0.656060         1.351289         1.874216
 H        -2.004378         2.125055         1.354210
