19
Iteration:  4106charge 0 multiplicity 1
 C        -3.199528         0.154213         2.842231
 C        -2.543523         0.111279         1.496656
 C        -3.121089        -0.379727         0.199001
 C        -2.133438        -1.227365         0.926443
 C        -0.670277        -1.142280         0.412851
 C        -0.219687         0.033585        -0.411032
 O         0.345983         0.138589        -1.486461
 O        -0.579881         1.243533         0.256510
 C        -1.351048         1.091063         1.436861
 H        -4.274156        -0.072382         2.940815
 H        -2.796508        -0.445616         3.615578
 H        -3.173438         1.207456         3.248291
 H        -4.141417        -0.828562         0.384785
 H        -2.790947        -0.103038        -0.808298
 H        -2.296867        -2.196383         1.302907
 H        -0.006435        -1.208392         1.308797
 H        -0.456065        -2.057888        -0.194608
 H        -0.623752         0.841389         2.175170
 H        -1.597831         2.101645         1.750521
