19
Iteration:  4666
 C        -3.090278         0.085384         3.008581
 C        -2.491761         0.057934         1.594500
 C        -3.178358        -0.284097         0.311322
 C        -2.051686        -1.170977         0.913274
 C        -0.701129        -1.239710         0.236414
 C        -0.200995         0.026568        -0.418200
 O         0.662033         0.106812        -1.345020
 O        -0.849582         1.134396         0.108895
 C        -1.559585         1.304332         1.320939
 H        -3.223710         1.201625         3.102040
 H        -4.015083        -0.534779         3.078629
 H        -2.293554        -0.356179         3.689979
 H        -4.232315        -0.647356         0.296220
 H        -2.793675         0.222650        -0.544452
 H        -2.227962        -2.151323         1.403192
 H         0.081975        -1.452767         0.964889
 H        -0.681812        -2.045279        -0.493774
 H        -0.898800         1.342984         2.163208
 H        -2.188716         2.243068         1.401551
