19
Iteration:   283
 C        -2.906359         0.206041         2.891799
 C        -2.541305         0.141994         1.425884
 C        -3.429983        -0.716013         0.609319
 C        -2.054969        -1.256021         0.988725
 C        -0.960847        -1.177708        -0.101344
 C        -0.165652         0.139483        -0.319016
 O         0.932366         0.092349        -0.816697
 O        -0.818424         1.296240        -0.145055
 C        -1.539754         1.258992         1.147771
 H        -3.726817         0.997101         3.256196
 H        -3.317909        -0.768792         3.223598
 H        -2.016312         0.354939         3.564178
 H        -4.407575        -0.882394         1.110724
 H        -3.449455        -0.499186        -0.435316
 H        -1.966653        -1.920393         1.772157
 H        -0.132766        -1.902001        -0.009209
 H        -1.331550        -1.350501        -1.152658
 H        -0.910037         1.449797         2.068934
 H        -2.126609         2.181295         1.164812
