19
Iteration:  1648
 C        -3.289960         0.305819         2.752881
 C        -2.477829         0.063954         1.513533
 C        -3.091591        -0.811577         0.359562
 C        -1.802872        -1.200855         1.106737
 C        -0.488008        -1.062435         0.457522
 C        -0.317515         0.134896        -0.401955
 O         0.400503         0.090052        -1.397839
 O        -0.885671         1.278043        -0.048210
 C        -1.478310         1.226515         1.387802
 H        -3.982682         1.121894         2.443390
 H        -3.872719        -0.542582         3.155419
 H        -2.640444         0.714189         3.546069
 H        -3.832334        -1.474062         0.828417
 H        -3.150325        -0.635893        -0.732642
 H        -1.825910        -2.082729         1.770982
 H         0.196812        -1.001805         1.257473
 H        -0.201354        -1.928002        -0.090214
 H        -0.573616         0.847131         1.954745
 H        -1.771843         2.257451         1.766568
