19
Iteration:   316
 C        -2.879372         0.282373         3.046214
 C        -2.494676         0.092525         1.575916
 C        -3.307699        -0.618835         0.539249
 C        -1.968128        -1.215403         0.857753
 C        -0.865459        -1.251733        -0.210784
 C        -0.197856         0.024334        -0.301388
 O         0.905434         0.135426        -0.838797
 O        -0.852338         1.169311        -0.031521
 C        -1.762849         1.339092         1.113236
 H        -2.692360         1.419091         3.318919
 H        -3.986479         0.119369         3.179554
 H        -2.321417        -0.333007         3.795070
 H        -4.287866        -1.085966         0.629157
 H        -3.391969        -0.028435        -0.368838
 H        -2.051452        -2.054853         1.504139
 H        -0.103740        -2.038324         0.065672
 H        -1.358787        -1.485653        -1.187475
 H        -1.183373         1.933020         1.904526
 H        -2.506077         1.883288         0.544693
