19
Iteration:  3310charge 0 multiplicity 1
 C        -3.335842         0.029104         2.822582
 C        -2.504312         0.172204         1.518809
 C        -3.239983        -0.594399         0.331444
 C        -1.998883        -1.186429         1.056363
 C        -0.564707        -1.154768         0.452579
 C        -0.293787         0.098574        -0.494275
 O         0.403441         0.127587        -1.511204
 O        -0.553696         1.301796         0.175034
 C        -1.384200         1.235994         1.340566
 H        -4.288336        -0.545562         2.733591
 H        -2.704860        -0.360636         3.610066
 H        -3.463401         1.032279         3.182685
 H        -4.217073        -0.978798         0.502501
 H        -3.006469        -0.362110        -0.760935
 H        -2.190722        -2.004746         1.741433
 H         0.286786        -0.958816         1.206227
 H        -0.341853        -2.137555        -0.097166
 H        -0.790116         1.017659         2.289834
 H        -1.778521         2.268778         1.511559
