19
Iteration:   634
 C        -3.300664         0.296018         2.895376
 C        -2.448312        -0.021895         1.649487
 C        -3.020215        -0.595874         0.379092
 C        -1.864735        -1.302500         1.132294
 C        -0.470167        -1.115652         0.382952
 C        -0.239549         0.088949        -0.440529
 O         0.545898         0.234206        -1.332000
 O        -1.043887         1.162146        -0.128504
 C        -1.545710         1.161326         1.226159
 H        -3.431085         1.443344         3.155952
 H        -4.387461         0.222893         2.623566
 H        -2.833433        -0.107045         3.848863
 H        -3.974470        -1.044724         0.334152
 H        -2.707574        -0.054631        -0.484509
 H        -2.112883        -2.262733         1.645658
 H         0.281769        -1.033198         1.211822
 H        -0.175052        -2.081968         0.062001
 H        -0.658883         1.364773         1.919236
 H        -2.127865         2.119452         1.232034
