19
Iteration:  4153charge 0 multiplicity 1
 C        -3.249030         0.064279         2.804703
 C        -2.335057         0.128679         1.567512
 C        -3.067378        -0.280488         0.284809
 C        -2.100482        -1.211629         0.894600
 C        -0.700208        -1.300208         0.248622
 C        -0.257940         0.029282        -0.361478
 O         0.358672         0.098245        -1.401250
 O        -0.627682         1.211339         0.229475
 C        -1.412281         1.258820         1.465323
 H        -3.568456        -0.986900         2.893014
 H        -2.708696         0.238385         3.805091
 H        -4.146333         0.723136         2.735814
 H        -4.117754        -0.545764         0.345537
 H        -2.689930         0.389771        -0.533795
 H        -2.415429        -2.153395         1.427197
 H        -0.047366        -1.595577         1.040661
 H        -0.712539        -2.097406        -0.456964
 H        -0.693928         1.618560         2.213203
 H        -1.884447         2.227255         1.317873
