19
Iteration:  4167charge 0 multiplicity 1
 C        -3.169675         0.041113         2.853195
 C        -2.391923         0.063246         1.595820
 C        -3.008741        -0.223753         0.200742
 C        -2.019103        -1.187593         0.995784
 C        -0.784018        -1.280015         0.236262
 C        -0.302706         0.018459        -0.342285
 O         0.374989         0.121796        -1.317644
 O        -0.654253         1.192764         0.201166
 C        -1.410877         1.244018         1.365585
 H        -3.534625        -0.956615         3.172139
 H        -2.723298         0.724681         3.673152
 H        -4.051672         0.599524         2.484711
 H        -4.063424        -0.301162         0.151720
 H        -2.671147         0.177145        -0.690459
 H        -2.575800        -2.062258         1.406489
 H         0.111429        -1.627274         0.713843
 H        -0.807211        -1.814981        -0.715740
 H        -0.821232         1.055271         2.308299
 H        -2.106173         2.102767         1.393671
