19
Iteration:  3452charge 0 multiplicity 1
 C        -3.156651         0.272100         2.960897
 C        -2.445724         0.071743         1.591097
 C        -3.077138        -0.308544         0.303773
 C        -2.030809        -1.262675         0.796120
 C        -0.635989        -1.335734         0.219315
 C        -0.210675         0.017842        -0.384042
 O         0.456533         0.148340        -1.365589
 O        -0.778304         1.160869         0.143082
 C        -1.515624         1.216426         1.442509
 H        -2.703939         0.997508         3.675427
 H        -4.180823         0.337777         2.741648
 H        -3.217137        -0.648007         3.520801
 H        -4.126010        -0.751977         0.199116
 H        -2.771177         0.276829        -0.529958
 H        -2.395673        -2.023137         1.524999
 H         0.041727        -1.469319         1.055668
 H        -0.495199        -2.187012        -0.523027
 H        -0.856789         1.335199         2.276812
 H        -2.035367         2.165608         1.346643
