19
Iteration:  2096charge 0 multiplicity 1
 C        -3.286146         0.156979         2.884789
 C        -2.512162         0.111958         1.496957
 C        -2.895452        -0.707635         0.225613
 C        -1.806303        -1.201842         1.066135
 C        -0.326024        -1.052835         0.626306
 C        -0.243648         0.117912        -0.358378
 O         0.238415         0.054737        -1.465039
 O        -0.951619         1.232684        -0.001799
 C        -1.539450         1.296519         1.256946
 H        -3.593452         1.170592         3.204964
 H        -4.252020        -0.303589         2.803678
 H        -2.711809        -0.336039         3.648985
 H        -3.865315        -1.082465         0.496289
 H        -2.945647        -0.289143        -0.773586
 H        -2.089550        -2.071142         1.674307
 H         0.222741        -1.146770         1.532710
 H         0.027661        -1.835670        -0.003960
 H        -0.847975         1.380430         2.138337
 H        -1.993880         2.298524         1.242944
