19
Iteration:  2002charge 0 multiplicity 1
 C        -3.144396         0.306091         2.896735
 C        -2.447572         0.056963         1.562338
 C        -3.069069        -0.772750         0.416889
 C        -1.876277        -1.291663         1.068151
 C        -0.622506        -1.179153         0.273122
 C        -0.309212         0.074800        -0.467106
 O         0.597107         0.230064        -1.239744
 O        -0.949967         1.219958        -0.025638
 C        -1.614921         1.257135         1.252499
 H        -4.065585         0.789212         2.518573
 H        -3.510966        -0.402464         3.652227
 H        -2.590034         1.105736         3.426773
 H        -4.045458        -1.239664         0.477675
 H        -2.907239        -0.356874        -0.606854
 H        -1.887035        -2.009541         1.835947
 H         0.348871        -1.114099         0.948285
 H        -0.294909        -2.095580        -0.348205
 H        -0.896835         1.586363         2.008082
 H        -2.262573         2.153571         1.186816
