19
Iteration:  4360charge 0 multiplicity 1
 C        -3.085051         0.170472         2.879493
 C        -2.460576         0.094161         1.478267
 C        -3.145529        -0.329792         0.204680
 C        -2.048219        -1.263369         0.970611
 C        -0.676940        -1.297202         0.250898
 C        -0.303458         0.048843        -0.386452
 O         0.468643         0.190319        -1.284543
 O        -0.745567         1.207935         0.152503
 C        -1.438140         1.178980         1.393065
 H        -4.125357         0.379603         2.885079
 H        -3.119884        -0.641118         3.568482
 H        -2.739802         0.941820         3.542900
 H        -4.160675        -0.660589         0.303047
 H        -3.010254         0.142305        -0.712638
 H        -2.199472        -2.275170         1.381780
 H         0.082151        -1.435196         1.105007
 H        -0.596544        -2.128997        -0.446045
 H        -0.851375         0.902206         2.260181
 H        -1.714580         2.218142         1.621937
