19
Iteration:  4104charge 0 multiplicity 1
 C        -3.204815         0.158382         2.856730
 C        -2.530390         0.118208         1.487608
 C        -3.109834        -0.381832         0.189246
 C        -2.135532        -1.247622         0.930562
 C        -0.664924        -1.156337         0.402954
 C        -0.235227         0.040007        -0.406582
 O         0.344528         0.141747        -1.477331
 O        -0.586555         1.249129         0.249492
 C        -1.354112         1.100629         1.446154
 H        -4.286896        -0.043694         2.914362
 H        -2.748415        -0.500412         3.580424
 H        -3.096741         1.223202         3.148793
 H        -4.114860        -0.779135         0.360471
 H        -2.824376        -0.120132        -0.795379
 H        -2.384831        -2.235467         1.305883
 H         0.012248        -1.197075         1.333381
 H        -0.449950        -2.113096        -0.172800
 H        -0.617263         0.850367         2.185697
 H        -1.562059         2.125908         1.785983
