19
Iteration:   105charge 0 multiplicity 1
 C        -3.348726         0.297657         2.653566
 C        -2.403183         0.064199         1.445821
 C        -2.866972        -0.501125         0.156731
 C        -1.948320        -1.326741         1.000960
 C        -0.547576        -1.385636         0.453420
 C        -0.340267         0.043724        -0.300952
 O        -0.002307         0.179825        -1.454559
 O        -0.569711         1.341461         0.275223
 C        -1.318470         1.229433         1.509564
 H        -4.266080        -0.434726         2.672731
 H        -2.782518         0.233613         3.623858
 H        -3.763852         1.329472         2.568782
 H        -3.965646        -0.761502         0.089659
 H        -2.469381        -0.102308        -0.797151
 H        -2.340035        -2.227459         1.497489
 H         0.144275        -1.492150         1.282197
 H        -0.387670        -2.136072        -0.368197
 H        -0.679081         1.017289         2.444757
 H        -1.822207         2.215765         1.714566
