19
Iteration:  3556charge 0 multiplicity 1
 C        -3.198674         0.292118         2.999399
 C        -2.474834         0.091622         1.632017
 C        -3.174748        -0.306883         0.336076
 C        -2.112925        -1.216038         0.860593
 C        -0.731154        -1.263293         0.195966
 C        -0.184389        -0.026360        -0.477633
 O         0.654716         0.204292        -1.368357
 O        -0.760079         1.085591         0.101711
 C        -1.421612         1.143371         1.451619
 H        -4.236773         0.482133         3.107427
 H        -3.031540        -0.706259         3.487798
 H        -2.559699         0.949184         3.616065
 H        -4.295241        -0.558589         0.360269
 H        -3.019359         0.270898        -0.536601
 H        -2.632505        -2.113423         1.078454
 H        -0.014659        -1.745968         0.999777
 H        -0.753452        -2.063068        -0.549189
 H        -0.818926         1.298312         2.380673
 H        -2.123576         2.010099         1.229432
