19
Iteration:  1917charge 0 multiplicity 1
 C        -2.974221         0.207343         2.917116
 C        -2.418010         0.030741         1.582162
 C        -3.123663        -0.687357         0.393223
 C        -1.909482        -1.261633         1.035895
 C        -0.552286        -1.161370         0.345256
 C        -0.203644         0.128601        -0.271818
 O         0.585231         0.092250        -1.199489
 O        -0.985222         1.241365        -0.081570
 C        -1.791205         1.397950         1.106675
 H        -3.437755         1.156407         3.070294
 H        -3.751359        -0.570339         2.992454
 H        -2.201867         0.092465         3.699056
 H        -4.183019        -1.003303         0.354972
 H        -2.826594        -0.246747        -0.574329
 H        -2.145727        -2.259758         1.408353
 H         0.217416        -1.353991         1.001028
 H        -0.526569        -1.861481        -0.458810
 H        -1.138452         1.939818         1.828387
 H        -2.697641         1.954169         0.765072
