19
Iteration:  2933
 C        -3.305356         0.269110         2.752545
 C        -2.435745        -0.034548         1.559603
 C        -2.841412        -0.666523         0.309870
 C        -1.759198        -1.300813         1.135463
 C        -0.325701        -1.166734         0.552802
 C        -0.334236         0.098530        -0.369592
 O         0.266603         0.170564        -1.433722
 O        -1.031584         1.334228        -0.004423
 C        -1.558835         1.215312         1.269123
 H        -3.470237         1.330618         2.671628
 H        -4.375075        -0.091533         2.694767
 H        -3.037027        -0.055723         3.808115
 H        -3.852767        -1.037079         0.308869
 H        -2.518789        -0.168377        -0.658141
 H        -2.009932        -2.070760         1.891984
 H         0.395189        -1.164801         1.364363
 H         0.017477        -2.008856        -0.067969
 H        -0.745370         1.247754         2.049370
 H        -2.211190         2.007994         1.309824
