19
Iteration:  2595charge 0 multiplicity 1
 C        -3.314163         0.218271         2.734880
 C        -2.487446         0.059391         1.467268
 C        -3.044010        -0.721887         0.329418
 C        -1.827360        -1.190312         1.215160
 C        -0.444655        -1.052674         0.470039
 C        -0.300023         0.087549        -0.422351
 O         0.301537         0.121883        -1.495742
 O        -0.801106         1.251205         0.118225
 C        -1.497960         1.231198         1.313938
 H        -3.821451         1.180040         2.824672
 H        -3.947195        -0.693042         2.746188
 H        -2.640676         0.209918         3.660004
 H        -4.034147        -1.151148         0.607429
 H        -2.868812        -0.409488        -0.803401
 H        -1.855138        -2.019203         1.888860
 H         0.385228        -0.986910         1.287560
 H        -0.260391        -1.985891        -0.092785
 H        -0.760944         1.165055         2.146535
 H        -1.985375         2.182307         1.354405
