19
Iteration:   894charge 0 multiplicity 1
 C        -2.058519         0.243154         2.958582
 C        -2.410171         0.037806         1.442878
 C        -3.547324        -0.843759         0.914608
 C        -2.102335        -1.241360         0.711064
 C        -1.049497        -1.136644        -0.385696
 C        -0.133762         0.172951        -0.128268
 O         1.035824         0.200657        -0.165406
 O        -0.913522         1.314611        -0.073682
 C        -2.307697         1.220525         0.374345
 H        -2.987191         0.349071         3.481333
 H        -1.666425        -0.669369         3.390049
 H        -1.463362         1.089027         3.191299
 H        -4.100818        -1.397063         1.713549
 H        -4.144130        -0.397031         0.170325
 H        -1.824286        -1.945565         1.537177
 H        -0.419373        -2.054047        -0.440236
 H        -1.432397        -0.962186        -1.437891
 H        -2.326374         2.183952         0.942889
 H        -3.029672         1.169319        -0.452099
