19
Iteration:  3217
 C        -3.174538         0.078190         2.910416
 C        -2.529340         0.091040         1.561862
 C        -3.243692        -0.620115         0.441975
 C        -1.948719        -1.160260         0.986441
 C        -0.554011        -1.136697         0.351390
 C        -0.185954         0.148267        -0.401765
 O         0.560853         0.083721        -1.390581
 O        -0.750559         1.328076        -0.002825
 C        -1.602146         1.238166         1.261010
 H        -3.195489         1.034458         3.369026
 H        -4.246382        -0.217118         2.735175
 H        -2.735567        -0.743867         3.503649
 H        -4.157017        -1.165985         0.511334
 H        -2.999283        -0.170368        -0.536252
 H        -2.205480        -1.996685         1.698369
 H         0.034729        -1.260199         1.282267
 H        -0.288276        -1.984323        -0.247754
 H        -0.904083         1.118314         2.118635
 H        -2.164282         2.178883         1.401757
