19
Iteration:   435charge 0 multiplicity 1
 C        -3.285040         0.300072         2.919338
 C        -2.424050         0.002757         1.673193
 C        -3.135409        -0.534384         0.401499
 C        -1.858310        -1.217307         1.006617
 C        -0.587125        -1.280955         0.279698
 C        -0.172661         0.076300        -0.446055
 O         0.632433         0.177960        -1.361803
 O        -0.898775         1.209201         0.004649
 C        -1.625525         1.230461         1.303449
 H        -4.065793        -0.553742         3.207364
 H        -2.792541         0.626529         3.796153
 H        -3.959311         1.098886         2.730633
 H        -4.116940        -0.971855         0.468876
 H        -3.021699        -0.040224        -0.612096
 H        -2.037367        -2.118197         1.602245
 H         0.239033        -1.440323         1.009596
 H        -0.549338        -2.125540        -0.457234
 H        -0.823496         1.350439         2.030586
 H        -2.307964         2.092791         1.169939
