19
Iteration:  4597
 C        -3.201135         0.233393         2.994170
 C        -2.479733         0.079505         1.565345
 C        -3.271136        -0.504734         0.352044
 C        -2.034383        -1.170393         0.926833
 C        -0.654880        -1.246524         0.143513
 C        -0.235877         0.032646        -0.437649
 O         0.568012         0.157490        -1.350748
 O        -0.676089         1.228710         0.155703
 C        -1.474699         1.186254         1.370878
 H        -3.872032         1.022191         2.722025
 H        -3.657778        -0.625591         3.443954
 H        -2.479355         0.648831         3.661567
 H        -4.191716        -1.056170         0.595053
 H        -3.148119         0.141039        -0.573406
 H        -2.293419        -2.258959         1.173682
 H         0.157362        -1.550776         0.873202
 H        -0.756949        -2.082520        -0.573038
 H        -0.739810         1.067854         2.210926
 H        -1.823233         2.232458         1.491459
