19
Iteration:   858
 C        -2.221148         0.199566         2.942921
 C        -2.516962         0.108710         1.398174
 C        -3.488619        -0.953919         0.837219
 C        -2.033836        -1.196835         0.877494
 C        -1.053263        -1.084504        -0.242864
 C        -0.175423         0.172669        -0.241334
 O         0.997714         0.142357        -0.420355
 O        -0.809787         1.382402         0.123374
 C        -2.236835         1.216660         0.415589
 H        -2.980643         0.890443         3.388077
 H        -2.050666        -0.819951         3.393328
 H        -1.194131         0.683212         3.099104
 H        -4.195931        -1.487469         1.456504
 H        -3.975759        -0.634852        -0.177821
 H        -1.641983        -1.917731         1.685349
 H        -0.209953        -1.720392        -0.182339
 H        -1.501660        -1.193973        -1.208811
 H        -2.479633         2.126879         0.873635
 H        -2.813783         1.174017        -0.499543
