19
Iteration:  2705charge 0 multiplicity 1
 C        -2.976225         0.084207         2.974582
 C        -2.528874         0.040960         1.550799
 C        -3.343942        -0.617587         0.466240
 C        -1.985475        -1.229180         0.954045
 C        -0.486433        -1.134078         0.427574
 C        -0.190051         0.129552        -0.383859
 O         0.714208         0.115486        -1.207032
 O        -0.886436         1.322137        -0.150204
 C        -1.760572         1.275744         1.076277
 H        -3.883043         0.673775         3.085857
 H        -3.263832        -0.910436         3.362499
 H        -2.109194         0.479135         3.599095
 H        -4.341780        -1.202126         0.685584
 H        -3.480228        -0.185976        -0.513884
 H        -2.108536        -2.066743         1.633847
 H         0.132333        -1.055072         1.377474
 H        -0.104046        -1.955026        -0.172688
 H        -1.112077         1.623651         1.912886
 H        -2.472912         2.042202         0.835604
