19
Iteration:  4011charge 0 multiplicity 1
 C        -3.162591         0.102329         2.834647
 C        -2.471037         0.126055         1.501432
 C        -3.291376        -0.374113         0.352866
 C        -2.125352        -1.167201         0.892357
 C        -0.704629        -1.199660         0.308828
 C        -0.176516         0.054208        -0.387105
 O         0.476761         0.059490        -1.427198
 O        -0.585491         1.257712         0.219544
 C        -1.383310         1.197079         1.376130
 H        -4.233603        -0.152797         2.790004
 H        -2.840763        -0.709931         3.533214
 H        -3.160414         1.010291         3.506758
 H        -4.351404        -0.705756         0.584905
 H        -2.985979        -0.149446        -0.654495
 H        -2.354225        -2.025377         1.489642
 H         0.084564        -1.435148         1.023988
 H        -0.699278        -1.933691        -0.463464
 H        -0.853802         1.033478         2.346025
 H        -1.841095         2.170150         1.497735
