19
Iteration:  4340
 C        -3.109169         0.173544         2.935625
 C        -2.508392         0.094833         1.543626
 C        -3.274597        -0.474843         0.258297
 C        -2.189480        -1.198717         0.831141
 C        -0.670804        -1.161440         0.291501
 C        -0.187124         0.088130        -0.412157
 O         0.568137         0.132775        -1.328571
 O        -0.712008         1.236442         0.140388
 C        -1.380925         1.155433         1.391269
 H        -4.228144         0.312833         3.061519
 H        -2.774527        -0.785848         3.516047
 H        -2.658000         1.090568         3.408897
 H        -4.200807        -0.962426         0.364033
 H        -3.148967        -0.025816        -0.684374
 H        -2.418200        -2.156828         1.327104
 H         0.001581        -1.454856         1.196870
 H        -0.505153        -1.941227        -0.451748
 H        -0.804397         0.884685         2.302661
 H        -1.873876         2.050968         1.779123
