19
Iteration:  3794
 C        -3.205307         0.056817         2.797559
 C        -2.415675         0.220072         1.566791
 C        -3.073749        -0.345539         0.195898
 C        -2.050283        -1.078062         0.966576
 C        -0.713856        -1.316489         0.314856
 C        -0.237056         0.037050        -0.346614
 O         0.329066        -0.005569        -1.381009
 O        -0.703933         1.236654         0.159613
 C        -1.290840         1.269839         1.454227
 H        -4.177806        -0.392280         2.696139
 H        -2.695363        -0.696456         3.444522
 H        -3.467307         0.915097         3.417828
 H        -4.082915        -0.684824         0.295697
 H        -3.085709         0.380025        -0.650889
 H        -2.287239        -1.974712         1.438506
 H         0.077387        -1.664836         0.964591
 H        -0.860552        -2.055642        -0.430726
 H        -0.644204         1.075803         2.343542
 H        -1.696827         2.315522         1.517436
