19
Iteration:   754charge 0 multiplicity 1
 C        -2.875536         0.306959         2.918390
 C        -2.574036         0.116855         1.451185
 C        -3.321666        -0.934306         0.720615
 C        -1.892056        -1.232378         1.078699
 C        -1.015111        -1.255949        -0.106624
 C        -0.194743         0.110375        -0.375989
 O         0.883447         0.238415        -1.006601
 O        -0.538963         1.252371         0.302637
 C        -1.973986         1.356626         0.743660
 H        -3.939081         0.750147         3.183819
 H        -2.870270        -0.716128         3.391035
 H        -2.169437         1.092908         3.321533
 H        -4.147203        -1.317422         1.207928
 H        -3.452269        -0.872554        -0.334054
 H        -1.457809        -1.709521         1.958070
 H        -0.193011        -1.990559        -0.071760
 H        -1.367820        -1.531538        -1.124791
 H        -1.818504         2.133625         1.562787
 H        -2.671398         1.730929        -0.082593
