19
Iteration:   656
 C        -3.084752         0.141586         2.914754
 C        -2.478699         0.124753         1.481857
 C        -3.148487        -0.633512         0.370068
 C        -1.873283        -1.188037         1.006142
 C        -0.475558        -1.147329         0.474794
 C        -0.256123         0.111284        -0.353474
 O         0.652010         0.143558        -1.183868
 O        -1.159694         1.152342        -0.202261
 C        -1.565264         1.330862         1.202109
 H        -3.447142         1.158512         3.393475
 H        -4.136733        -0.281016         2.867910
 H        -2.361258        -0.352099         3.655469
 H        -4.024711        -1.088507         0.698125
 H        -3.124503        -0.269574        -0.640026
 H        -2.099749        -1.956497         1.749340
 H         0.337051        -1.468526         1.160476
 H        -0.441440        -1.967382        -0.234216
 H        -0.740461         1.309136         1.980227
 H        -2.019752         2.345035         1.269586
