19
Iteration:  4195
 C        -3.206927         0.206098         2.952761
 C        -2.515060         0.146882         1.591384
 C        -3.201254        -0.435465         0.263607
 C        -2.066990        -1.208990         0.841864
 C        -0.740170        -1.288869         0.118892
 C        -0.181871         0.042952        -0.384625
 O         0.549868         0.119904        -1.375162
 O        -0.695170         1.209219         0.200094
 C        -1.382715         1.204571         1.517241
 H        -3.192567        -0.788125         3.415396
 H        -2.649510         0.893065         3.600305
 H        -4.206687         0.486114         2.528903
 H        -4.261380        -0.750329         0.399117
 H        -3.113413         0.245194        -0.679343
 H        -2.580198        -2.070936         1.319746
 H         0.094944        -1.540206         0.866447
 H        -0.558243        -1.935474        -0.766170
 H        -0.756603         0.973447         2.398304
 H        -1.668037         2.252022         1.792562
