19
Iteration:  1828
 C        -3.288623         0.204747         2.816237
 C        -2.315632         0.070011         1.627531
 C        -2.955112        -0.680224         0.385131
 C        -1.821811        -1.253669         1.091086
 C        -0.534662        -1.168761         0.380551
 C        -0.265480         0.099756        -0.379125
 O         0.475743         0.101000        -1.309726
 O        -1.009863         1.248839        -0.069232
 C        -1.599829         1.355937         1.236833
 H        -4.071765         0.938807         2.659821
 H        -3.750853        -0.741311         3.140449
 H        -2.729687         0.620577         3.683980
 H        -4.001956        -0.915925         0.717026
 H        -2.810463        -0.248449        -0.623645
 H        -1.925370        -2.183591         1.643489
 H         0.209408        -1.352310         1.058214
 H        -0.552754        -1.993881        -0.360637
 H        -0.844188         1.623060         2.025058
 H        -2.365150         2.158226         1.104073
