19
Iteration:  4608charge 0 multiplicity 1
 C        -3.189238         0.188524         2.926496
 C        -2.500618         0.088713         1.568270
 C        -3.204181        -0.456393         0.407627
 C        -2.019767        -1.249608         0.900571
 C        -0.778562        -1.205548         0.183269
 C        -0.254639         0.079073        -0.464489
 O         0.618274         0.103793        -1.348636
 O        -0.689579         1.251702         0.138245
 C        -1.434914         1.222410         1.375276
 H        -3.974500         0.910171         3.082628
 H        -3.698593        -0.735099         3.187715
 H        -2.504160         0.369456         3.731760
 H        -4.180063        -0.951671         0.606825
 H        -3.228186        -0.167309        -0.690046
 H        -2.172910        -1.999771         1.737464
 H         0.094373        -1.477793         0.855921
 H        -0.708527        -1.933573        -0.662403
 H        -0.709045         1.115689         2.238434
 H        -1.948786         2.216151         1.396561
