19
Iteration:  2322charge 0 multiplicity 1
 C        -3.166469         0.336059         2.953584
 C        -2.390893        -0.028952         1.665469
 C        -3.161078        -0.611021         0.431310
 C        -1.873851        -1.264237         1.084515
 C        -0.486412        -1.236927         0.238233
 C        -0.181625         0.105312        -0.396757
 O         0.702697         0.350450        -1.163803
 O        -1.096914         1.073187        -0.185280
 C        -1.700754         1.187013         1.139575
 H        -3.244669         1.421820         3.104908
 H        -4.201417         0.005385         3.084588
 H        -2.665332         0.007621         3.914615
 H        -4.133919        -1.048117         0.789328
 H        -3.055739        -0.021821        -0.484181
 H        -2.155162        -2.265362         1.445624
 H         0.247566        -1.413382         0.934674
 H        -0.419019        -1.995311        -0.514129
 H        -0.886627         1.722266         1.670366
 H        -2.405115         1.995516         1.132051
