19
Iteration:   924
 C        -2.161865         0.436923         2.876212
 C        -2.484656         0.014755         1.468166
 C        -3.408248        -1.001282         0.934089
 C        -1.956544        -1.225728         0.714275
 C        -1.126753        -1.083703        -0.629172
 C        -0.245547         0.156090        -0.259733
 O         0.996046         0.104490        -0.049272
 O        -0.865326         1.298441         0.069252
 C        -2.245043         1.219558         0.483695
 H        -3.045556         1.000448         3.274325
 H        -1.693164        -0.281794         3.609347
 H        -1.352165         1.263835         2.877655
 H        -3.972300        -1.562535         1.722383
 H        -4.173141        -0.705909         0.176728
 H        -1.421401        -1.875749         1.520720
 H        -0.701844        -2.005723        -0.882840
 H        -1.739930        -0.807038        -1.450789
 H        -2.244718         2.091346         1.040767
 H        -2.952839         1.270458        -0.329590
