19
Iteration:  4135
 C        -3.298180         0.040552         2.850924
 C        -2.524671         0.146087         1.554934
 C        -3.204168        -0.288250         0.303847
 C        -2.047090        -1.158085         0.855305
 C        -0.555560        -1.276556         0.286242
 C        -0.212700         0.004050        -0.414899
 O         0.365793         0.050458        -1.487839
 O        -0.543854         1.235767         0.258577
 C        -1.397949         1.283314         1.482414
 H        -4.134009        -0.662436         2.926596
 H        -2.776548         0.022118         3.832066
 H        -3.834247         0.983412         3.025703
 H        -4.121819        -0.746166         0.625836
 H        -3.192491         0.116782        -0.659554
 H        -2.344552        -2.159368         1.234388
 H         0.185263        -1.359874         1.130185
 H        -0.349641        -2.092210        -0.460445
 H        -0.665631         0.985847         2.312214
 H        -1.789450         2.357450         1.558307
