19
Iteration:  1933charge 0 multiplicity 1
 C        -3.122027         0.189993         2.970237
 C        -2.452743         0.093950         1.512355
 C        -3.050662        -0.657967         0.415662
 C        -1.865529        -1.231018         1.124682
 C        -0.579296        -1.259688         0.255523
 C        -0.309908         0.068124        -0.427021
 O         0.661084         0.194929        -1.169401
 O        -0.984980         1.224126        -0.108501
 C        -1.719397         1.352110         1.137470
 H        -3.788389         1.122821         3.076993
 H        -3.837487        -0.606467         3.249198
 H        -2.352159         0.187085         3.761451
 H        -4.013518        -1.136720         0.621629
 H        -3.041522        -0.249609        -0.606884
 H        -1.838125        -1.914360         1.999048
 H         0.354090        -1.523408         0.901534
 H        -0.568052        -2.103965        -0.495856
 H        -1.015025         1.618209         1.958879
 H        -2.285338         2.274413         0.995561
