19
Iteration:  2505
 C        -3.420287         0.185602         2.838265
 C        -2.486787         0.102059         1.587524
 C        -2.930776        -0.577921         0.303931
 C        -1.773190        -1.165553         1.091901
 C        -0.356254        -1.099059         0.532437
 C        -0.294409         0.058465        -0.413081
 O         0.221034         0.097144        -1.502998
 O        -0.843464         1.173037         0.021745
 C        -1.508227         1.245105         1.302735
 H        -3.969261         1.096028         2.782510
 H        -3.962486        -0.755972         2.734396
 H        -2.795767         0.119822         3.759333
 H        -3.843253        -1.224096         0.283486
 H        -2.595309        -0.172281        -0.626509
 H        -1.997292        -1.924124         1.876127
 H         0.351621        -0.920329         1.414895
 H         0.006722        -2.039799        -0.008654
 H        -0.761476         1.343451         2.083364
 H        -2.008195         2.206304         1.354201
