19
Iteration:   956charge 0 multiplicity 1
 C        -2.288401         0.359780         2.798906
 C        -2.491682         0.089600         1.342631
 C        -3.275372        -1.152736         0.973429
 C        -1.802956        -1.187834         0.872191
 C        -1.237327        -0.851179        -0.507866
 C        -0.259650         0.224971        -0.161281
 O         0.909359        -0.117584        -0.216881
 O        -0.798442         1.407637         0.183894
 C        -2.218477         1.211333         0.374358
 H        -2.893659         1.294451         3.045843
 H        -2.643254        -0.412624         3.555403
 H        -1.142017         0.606310         2.860836
 H        -3.697776        -1.649267         1.899021
 H        -3.942765        -1.085381         0.085889
 H        -1.083405        -1.768820         1.577548
 H        -0.937524        -1.746031        -0.938736
 H        -2.050739        -0.468933        -1.037899
 H        -2.543249         2.139429         0.700033
 H        -2.701233         1.157003        -0.597722
