19
Iteration:  2158
 C        -3.463461         0.185548         2.695705
 C        -2.451553         0.093376         1.532412
 C        -3.031751        -0.819979         0.388517
 C        -1.777171        -1.229763         1.221636
 C        -0.413740        -1.134537         0.479495
 C        -0.263906         0.112769        -0.445644
 O         0.231785         0.096026        -1.567764
 O        -0.754414         1.358130         0.107475
 C        -1.431193         1.314423         1.341484
 H        -4.366866         0.527725         2.229270
 H        -3.545025        -0.874164         3.033072
 H        -3.298873         0.829702         3.600568
 H        -4.043198        -1.170378         0.672609
 H        -2.871372        -0.338873        -0.559675
 H        -1.931769        -2.111012         1.913911
 H         0.367463        -0.908926         1.303596
 H        -0.147264        -2.010094        -0.093518
 H        -0.600763         1.271185         2.081894
 H        -1.972337         2.296823         1.497390
