19
Iteration:  1761charge 0 multiplicity 1
 C        -3.298510         0.195266         2.710344
 C        -2.556033         0.030615         1.490831
 C        -3.108670        -0.825843         0.407651
 C        -1.818397        -1.254661         1.130863
 C        -0.478027        -1.016132         0.531959
 C        -0.286215         0.121739        -0.445507
 O         0.356313         0.033231        -1.495404
 O        -0.749661         1.393730         0.086926
 C        -1.498341         1.249478         1.293484
 H        -3.945012         1.093846         2.647021
 H        -3.853005        -0.659754         3.111645
 H        -2.490096         0.498727         3.393752
 H        -4.098361        -1.034750         0.761244
 H        -3.026321        -0.277423        -0.595684
 H        -1.847377        -2.082412         1.861488
 H         0.161900        -0.817648         1.299850
 H        -0.058572        -1.876121        -0.055811
 H        -0.716901         1.160401         2.118349
 H        -2.069110         2.193510         1.434735
