19
Iteration:   955charge 0 multiplicity 1
 C        -2.281245         0.364926         2.791763
 C        -2.484693         0.088951         1.359651
 C        -3.272231        -1.153315         0.965784
 C        -1.810602        -1.194387         0.873412
 C        -1.239358        -0.850340        -0.507040
 C        -0.250241         0.222716        -0.158474
 O         0.902112        -0.115420        -0.211191
 O        -0.803109         1.407993         0.180833
 C        -2.216402         1.214566         0.375140
 H        -2.908720         1.280888         3.034824
 H        -2.600967        -0.411153         3.548122
 H        -1.140793         0.614498         2.873924
 H        -3.688354        -1.652151         1.873121
 H        -3.959128        -1.106537         0.061045
 H        -1.111766        -1.786368         1.566544
 H        -0.929172        -1.773328        -0.957715
 H        -2.051485        -0.453090        -1.059937
 H        -2.543829         2.177353         0.684112
 H        -2.739804         1.145752        -0.609301
