19
Iteration:  3965
 C        -2.983740         0.174257         2.927716
 C        -2.491528         0.057207         1.562444
 C        -3.117083        -0.243900         0.191902
 C        -2.127374        -1.217426         0.915213
 C        -0.797919        -1.308916         0.192221
 C        -0.232278         0.024132        -0.386156
 O         0.544536         0.122732        -1.313381
 O        -0.695518         1.130672         0.198180
 C        -1.539086         1.232787         1.383585
 H        -3.696061        -0.594142         3.325629
 H        -2.318225         0.274805         3.764764
 H        -3.621669         1.064609         3.084335
 H        -4.172573        -0.468733         0.261906
 H        -2.761107         0.369398        -0.657849
 H        -2.452093        -2.081607         1.441899
 H        -0.117988        -1.466669         0.966369
 H        -0.692282        -2.106236        -0.544935
 H        -0.913651         1.258132         2.286497
 H        -2.127124         2.109883         1.357172
