19
Iteration:   320charge 0 multiplicity 1
 C        -2.868559         0.287784         3.068154
 C        -2.476798         0.120886         1.569176
 C        -3.308074        -0.570961         0.551543
 C        -1.984363        -1.232152         0.839075
 C        -0.830268        -1.275079        -0.218122
 C        -0.173975         0.041890        -0.292288
 O         0.892015         0.133511        -0.848442
 O        -0.864251         1.156391        -0.003312
 C        -1.807759         1.327276         1.083887
 H        -2.667364         1.272048         3.333614
 H        -4.016204         0.164826         3.022206
 H        -2.384797        -0.443482         3.804642
 H        -4.275347        -0.971225         0.824940
 H        -3.394443        -0.020675        -0.415317
 H        -1.983017        -2.202100         1.516479
 H        -0.092371        -2.051423         0.084472
 H        -1.229178        -1.556377        -1.169464
 H        -1.213238         1.887494         1.807931
 H        -2.538167         1.921407         0.504925
