19
Iteration:  2000
 C        -3.155500         0.310141         2.894732
 C        -2.455556         0.037504         1.577205
 C        -3.062961        -0.785236         0.421896
 C        -1.857300        -1.298462         1.051531
 C        -0.633235        -1.173001         0.273664
 C        -0.298786         0.072078        -0.471794
 O         0.602852         0.228434        -1.233733
 O        -0.953945         1.232288        -0.038042
 C        -1.604718         1.269906         1.242821
 H        -4.099412         0.811127         2.455390
 H        -3.500144        -0.423720         3.649660
 H        -2.617434         1.124204         3.431744
 H        -4.081482        -1.228753         0.588277
 H        -2.938167        -0.302961        -0.533209
 H        -1.945927        -1.993939         1.864016
 H         0.345078        -1.120401         0.923134
 H        -0.387811        -2.099763        -0.343361
 H        -0.848377         1.535783         2.042342
 H        -2.255549         2.165610         1.272626
