19
Iteration:  1482
 C        -3.206894         0.222416         2.905322
 C        -2.495924         0.124003         1.614066
 C        -3.084680        -0.590970         0.433160
 C        -1.860897        -1.195589         1.168920
 C        -0.557151        -1.209103         0.387313
 C        -0.255108         0.029608        -0.544849
 O         0.675456         0.205113        -1.273172
 O        -1.019373         1.160359        -0.163564
 C        -1.593909         1.269419         1.214788
 H        -3.814429         1.124948         2.961151
 H        -4.007967        -0.534758         2.844158
 H        -2.660793         0.222982         3.875099
 H        -4.045221        -1.160425         0.683192
 H        -2.962693        -0.314492        -0.641683
 H        -2.116935        -2.019746         1.868292
 H         0.212992        -1.360892         1.108608
 H        -0.423675        -2.099724        -0.202857
 H        -0.761918         1.236440         1.876556
 H        -2.023290         2.300749         1.348418
