19
Iteration:  1346charge 0 multiplicity 1
 C        -3.204053         0.181263         2.767189
 C        -2.415813         0.121732         1.472825
 C        -3.056657        -0.865623         0.443733
 C        -1.880816        -1.277315         1.212097
 C        -0.565678        -1.181038         0.378973
 C        -0.415198         0.077386        -0.446140
 O         0.302308         0.069372        -1.438216
 O        -0.446468         1.275616         0.289168
 C        -1.757253         1.553326         1.067224
 H        -3.593289         1.225180         3.088147
 H        -4.159209        -0.377565         2.639122
 H        -2.569488        -0.074619         3.671561
 H        -4.159334        -1.150585         0.554371
 H        -2.765417        -0.740798        -0.570149
 H        -1.885987        -1.939249         2.063490
 H         0.267756        -1.159735         0.995312
 H        -0.338609        -1.928226        -0.415095
 H        -1.321699         2.112815         2.011147
 H        -2.378811         2.230259         0.486557
