19
Iteration:   556
 C        -3.300196         0.104200         2.674545
 C        -2.389654         0.146498         1.496790
 C        -2.847332        -0.697144         0.163052
 C        -1.848159        -1.232393         1.161247
 C        -0.406905        -1.098413         0.618385
 C        -0.351351         0.069992        -0.358113
 O        -0.113693         0.034248        -1.531754
 O        -0.507235         1.267146         0.263006
 C        -1.548070         1.423867         1.258740
 H        -3.846114         1.123043         2.852182
 H        -4.070289        -0.629185         2.536122
 H        -2.951322        -0.331700         3.579835
 H        -3.877420        -1.097353         0.042537
 H        -2.409022        -0.324728        -0.747944
 H        -2.019648        -2.108851         1.902798
 H         0.193116        -0.986778         1.516679
 H        -0.101936        -2.037545         0.176737
 H        -1.150935         1.810424         2.206207
 H        -2.297559         2.198614         0.944383
