19
Iteration:  3966charge 0 multiplicity 1
 C        -2.975949         0.173046         2.928400
 C        -2.485744         0.059241         1.560846
 C        -3.114323        -0.242862         0.183878
 C        -2.125263        -1.226673         0.914586
 C        -0.798407        -1.304200         0.190019
 C        -0.244013         0.034875        -0.377343
 O         0.539522         0.119280        -1.310319
 O        -0.696593         1.124942         0.205080
 C        -1.539840         1.237782         1.378860
 H        -3.723363        -0.573623         3.291025
 H        -2.295089         0.301204         3.764330
 H        -3.580261         1.097117         3.096136
 H        -4.198380        -0.485833         0.243766
 H        -2.750942         0.326017        -0.678997
 H        -2.448399        -2.093093         1.404185
 H        -0.125588        -1.490312         1.009121
 H        -0.685466        -2.077953        -0.548727
 H        -0.902632         1.243353         2.272263
 H        -2.131163         2.102571         1.366020
