19
Iteration:  1134charge 0 multiplicity 1
 C        -3.215086         0.351844         2.872062
 C        -2.467286         0.090896         1.560915
 C        -3.213252        -0.847946         0.736341
 C        -1.852437        -1.210796         1.097338
 C        -0.755018        -1.205434         0.021257
 C        -0.172334         0.129497        -0.385320
 O         0.627220         0.199769        -1.347857
 O        -0.510412         1.174995         0.393535
 C        -1.830606         1.288882         0.850694
 H        -3.796323         1.319012         2.583711
 H        -3.984085        -0.449146         3.113212
 H        -2.585481         0.552668         3.811906
 H        -3.988068        -1.358934         1.277071
 H        -3.439349        -0.731606        -0.304856
 H        -1.605639        -1.823631         1.950051
 H         0.155777        -1.747967         0.174476
 H        -1.065141        -1.628122        -0.893394
 H        -1.882010         2.227928         1.491077
 H        -2.347277         1.517027        -0.070324
