19
Iteration:  1781charge 0 multiplicity 1
 C        -3.370374         0.351820         2.806326
 C        -2.499401         0.096254         1.540596
 C        -3.093832        -0.786503         0.403699
 C        -1.814769        -1.215608         1.130213
 C        -0.402056        -1.105076         0.421318
 C        -0.193711         0.129436        -0.397803
 O         0.367365         0.149458        -1.499663
 O        -0.862853         1.243988        -0.007406
 C        -1.479125         1.199829         1.392116
 H        -4.261230         0.947834         2.452687
 H        -3.878746        -0.601321         2.856007
 H        -3.090252         0.792767         3.741108
 H        -3.852806        -1.456602         0.770009
 H        -2.971034        -0.774697        -0.715874
 H        -2.013708        -2.130009         1.752850
 H         0.378395        -1.154077         1.235095
 H        -0.327763        -2.000414        -0.258975
 H        -0.605432         0.930624         2.036530
 H        -1.974023         2.154223         1.564885
