19
Iteration:  1577
 C        -3.213127         0.051831         2.907718
 C        -2.497082         0.126544         1.518957
 C        -3.172908        -0.631391         0.461806
 C        -1.824220        -1.152745         1.086645
 C        -0.507829        -1.137060         0.388594
 C        -0.214064         0.094555        -0.395605
 O         0.532369        -0.022096        -1.336950
 O        -0.801846         1.276830        -0.087283
 C        -1.712547         1.434695         1.214026
 H        -4.023927         0.800561         2.831581
 H        -3.690871        -0.886503         3.217114
 H        -2.522982         0.501243         3.671797
 H        -4.023734        -1.262751         0.794846
 H        -3.134139        -0.532207        -0.585669
 H        -1.952774        -1.897356         1.907416
 H         0.500729        -1.216105         1.045221
 H        -0.376756        -1.943783        -0.416803
 H        -1.113263         1.748779         2.132448
 H        -2.408565         2.212714         0.883789
