19
Iteration:   285charge 0 multiplicity 1
 C        -2.897224         0.225690         2.910305
 C        -2.550427         0.144061         1.429757
 C        -3.412351        -0.718524         0.596654
 C        -2.048116        -1.262248         0.989131
 C        -0.973050        -1.176107        -0.110159
 C        -0.153767         0.136411        -0.334652
 O         0.936480         0.094389        -0.813741
 O        -0.820428         1.302056        -0.139846
 C        -1.558611         1.250385         1.147373
 H        -3.632397         0.996710         3.260880
 H        -3.395453        -0.762653         3.222481
 H        -2.013910         0.309389         3.635475
 H        -4.375864        -0.842377         1.037799
 H        -3.454045        -0.552273        -0.475179
 H        -2.014397        -1.988660         1.822710
 H        -0.126096        -1.935838        -0.003853
 H        -1.390034        -1.344834        -1.103115
 H        -0.936914         1.445312         2.065975
 H        -2.143485         2.175828         1.146141
