19
Iteration:  4566charge 0 multiplicity 1
 C        -3.180817         0.266436         2.932120
 C        -2.402343         0.059731         1.522441
 C        -3.088785        -0.385395         0.317904
 C        -2.080236        -1.279038         0.892046
 C        -0.655928        -1.286758         0.258452
 C        -0.226607         0.075495        -0.402040
 O         0.429945         0.216281        -1.373315
 O        -0.752687         1.142301         0.188528
 C        -1.441210         1.174098         1.399113
 H        -3.957829         0.970692         2.562190
 H        -3.574098        -0.555321         3.578907
 H        -2.360669         0.880105         3.405964
 H        -4.150824        -0.562015         0.437584
 H        -2.999991        -0.099067        -0.733984
 H        -2.281828        -2.351447         1.164273
 H         0.064337        -1.473073         1.043577
 H        -0.553211        -2.085369        -0.477585
 H        -0.814629         1.017629         2.208672
 H        -2.056728         2.062780         1.614570
