19
Iteration:  4586charge 0 multiplicity 1
 C        -3.134360         0.361452         2.927618
 C        -2.540740         0.012982         1.628717
 C        -3.263543        -0.470712         0.328248
 C        -2.012313        -1.205750         0.875019
 C        -0.610922        -1.325697         0.188181
 C        -0.153803         0.071638        -0.396448
 O         0.495443         0.220893        -1.379608
 O        -0.704064         1.148844         0.158049
 C        -1.466455         1.156162         1.411871
 H        -4.038361         0.953032         2.834245
 H        -3.540193        -0.553639         3.324247
 H        -2.497421         0.813485         3.660137
 H        -4.287669        -0.847538         0.337211
 H        -3.303650         0.304111        -0.511120
 H        -2.348348        -2.246357         1.305217
 H         0.151004        -1.676095         0.945270
 H        -0.522610        -1.947251        -0.725526
 H        -0.750389         1.068735         2.240837
 H        -2.093710         2.051239         1.462950
