19
Iteration:  1844charge 0 multiplicity 1
 C        -3.155155         0.117237         2.888215
 C        -2.523985         0.093915         1.520224
 C        -3.185349        -0.671433         0.452196
 C        -1.863777        -1.239657         1.134035
 C        -0.480131        -1.162919         0.409469
 C        -0.232894         0.118316        -0.364898
 O         0.519804         0.070807        -1.306163
 O        -0.886133         1.314334        -0.098884
 C        -1.623834         1.366403         1.168609
 H        -4.015653         0.846575         2.850744
 H        -3.692318        -0.847748         2.980649
 H        -2.487537         0.333822         3.738309
 H        -3.966632        -1.375262         0.344668
 H        -3.128931        -0.306794        -0.575571
 H        -1.999850        -2.060784         1.884000
 H         0.465007        -1.178969         1.141960
 H        -0.212591        -1.811809        -0.414961
 H        -0.863091         1.548918         1.932629
 H        -2.220712         2.267628         0.988401
