19
Iteration:  3187
 C        -3.182381         0.044709         2.963917
 C        -2.505620         0.113149         1.535050
 C        -3.280433        -0.661333         0.463781
 C        -1.946820        -1.205922         0.970646
 C        -0.575552        -1.209580         0.300998
 C        -0.175388         0.076055        -0.443247
 O         0.618018         0.131258        -1.350620
 O        -0.691396         1.307759         0.026861
 C        -1.694041         1.426182         1.225040
 H        -2.540725         0.441647         3.736178
 H        -4.114542         0.574227         2.988288
 H        -3.327717        -1.031268         3.179895
 H        -4.232170        -1.205164         0.787824
 H        -3.415272        -0.275650        -0.534483
 H        -2.106610        -2.086789         1.620353
 H         0.018134        -1.136104         1.285142
 H        -0.259863        -2.054696        -0.311310
 H        -0.969169         1.549903         2.080563
 H        -2.307933         2.244263         1.031946
