19
Iteration:  1116
 C        -3.061999         0.463707         2.842016
 C        -2.396312        -0.004226         1.645952
 C        -3.287750        -0.821588         0.661133
 C        -1.824822        -1.312604         1.124282
 C        -0.774082        -1.212426        -0.015984
 C        -0.156031         0.126090        -0.357211
 O         0.637899         0.204021        -1.285831
 O        -0.474319         1.293747         0.432465
 C        -2.004931         1.239467         0.774970
 H        -3.954227         1.020460         2.599017
 H        -3.422569        -0.425291         3.346293
 H        -2.474849         0.941090         3.571198
 H        -4.293300        -1.249109         1.060752
 H        -3.500813        -0.434811        -0.347981
 H        -1.829666        -2.325055         1.606820
 H         0.028256        -2.021095         0.299052
 H        -1.197938        -1.769303        -0.940752
 H        -2.022792         2.160832         1.403116
 H        -2.613235         1.439359        -0.136127
