19
Iteration:  4016
 C        -3.212705         0.100435         2.834315
 C        -2.506251         0.152189         1.543232
 C        -3.279584        -0.387385         0.356561
 C        -2.120408        -1.164151         0.908533
 C        -0.699933        -1.159564         0.306516
 C        -0.188725         0.045504        -0.440590
 O         0.486139         0.077832        -1.425520
 O        -0.567354         1.207773         0.194263
 C        -1.349676         1.186989         1.409571
 H        -4.273399        -0.119766         2.661368
 H        -2.805078        -0.694159         3.478759
 H        -3.177094         0.858233         3.591128
 H        -4.252445        -0.678294         0.583592
 H        -3.090678        -0.001671        -0.675372
 H        -2.290085        -2.049588         1.591016
 H         0.134643        -1.353814         1.076347
 H        -0.688169        -1.990915        -0.475828
 H        -0.767927         1.070295         2.325303
 H        -1.956443         2.142149         1.408131
