19
Iteration:  4867charge 0 multiplicity 1
 C        -3.353642         0.095909         2.871047
 C        -2.407953        -0.006807         1.651070
 C        -2.977181        -0.179526         0.315016
 C        -2.020834        -1.203960         0.962778
 C        -0.547851        -1.245287         0.432390
 C        -0.236908         0.080712        -0.431759
 O         0.271927         0.051112        -1.511549
 O        -0.705850         1.186552         0.146408
 C        -1.378250         1.200901         1.390686
 H        -3.872344         1.072871         2.662103
 H        -4.124360        -0.641275         2.542129
 H        -3.030294        -0.047932         3.928442
 H        -4.092910        -0.393937         0.263600
 H        -2.617253         0.266002        -0.651242
 H        -2.454120        -2.160715         1.429933
 H         0.234892        -1.239811         1.149378
 H        -0.228144        -1.930817        -0.357775
 H        -0.559092         1.320896         2.111364
 H        -2.003866         2.080361         1.357539
