19
Iteration:  3242
 C        -3.152941         0.195409         2.861905
 C        -2.433173         0.093379         1.552035
 C        -3.004691        -0.539249         0.230877
 C        -1.959267        -1.254355         0.999830
 C        -0.551061        -1.202526         0.392494
 C        -0.347709         0.056216        -0.394217
 O         0.442529         0.208427        -1.297730
 O        -0.934237         1.175968         0.081430
 C        -1.454708         1.277568         1.315849
 H        -3.633405         1.134085         2.907362
 H        -3.882537        -0.568163         2.996407
 H        -2.385816         0.029351         3.619047
 H        -4.075213        -0.935859         0.267352
 H        -2.672461        -0.219638        -0.722946
 H        -2.318442        -2.150665         1.470828
 H         0.238806        -1.492703         1.179669
 H        -0.430179        -1.976143        -0.382577
 H        -0.734203         1.516815         2.154778
 H        -2.164003         2.035759         1.352868
