19
Iteration:  4249charge 0 multiplicity 1
 C        -3.139028         0.136620         2.961517
 C        -2.463338         0.080845         1.578148
 C        -3.243450        -0.403098         0.270237
 C        -2.110859        -1.169594         0.815112
 C        -0.786920        -1.225691         0.134607
 C        -0.231460         0.053403        -0.370565
 O         0.615231         0.080441        -1.247589
 O        -0.727509         1.254879         0.138414
 C        -1.396846         1.177922         1.441231
 H        -3.225722        -0.900693         3.296644
 H        -2.316489         0.542001         3.550205
 H        -4.063524         0.762571         2.918235
 H        -4.285516        -0.698180         0.542123
 H        -3.157550         0.139522        -0.772678
 H        -2.383821        -2.062314         1.446621
 H         0.018333        -1.623183         0.885260
 H        -0.653877        -1.900787        -0.752620
 H        -0.596489         1.356457         2.185148
 H        -1.834724         2.250866         1.374468
