19
Iteration:  4774charge 0 multiplicity 1
 C        -3.290446         0.136966         2.815468
 C        -2.383073         0.086012         1.597703
 C        -3.078304        -0.293005         0.420013
 C        -1.962921        -1.174382         0.940228
 C        -0.624457        -1.274846         0.211069
 C        -0.232923         0.030566        -0.428726
 O         0.378397         0.106193        -1.440958
 O        -0.654315         1.138776         0.233807
 C        -1.528706         1.222131         1.425829
 H        -3.828822         1.015508         2.605218
 H        -4.079714        -0.563733         2.947330
 H        -2.835467         0.396780         3.736956
 H        -3.999425        -0.807663         0.480839
 H        -2.987169         0.363168        -0.441807
 H        -2.198371        -2.091354         1.449131
 H         0.212699        -1.592222         0.904980
 H        -0.693798        -1.998758        -0.607959
 H        -0.748709         1.385488         2.241925
 H        -1.973187         2.203771         1.109137
