19
Iteration:  4836
 C        -3.201277         0.136608         2.835123
 C        -2.523986         0.217005         1.449474
 C        -3.126203        -0.417652         0.192614
 C        -1.972599        -1.200822         0.900965
 C        -0.543427        -1.218854         0.414090
 C        -0.335880         0.076418        -0.348649
 O         0.257152         0.047450        -1.461951
 O        -0.637271         1.222510         0.234032
 C        -1.332281         1.205140         1.474315
 H        -3.652556         1.240868         2.941924
 H        -4.043245        -0.619305         2.811406
 H        -2.448628        -0.126822         3.673529
 H        -4.117024        -0.884381         0.479378
 H        -3.111560        -0.158454        -0.916265
 H        -2.390124        -2.010240         1.588123
 H         0.211129        -1.227357         1.223439
 H        -0.278338        -2.033684        -0.285594
 H        -0.712426         0.807302         2.240762
 H        -1.711844         2.158958         1.757204
