19
Iteration:    15charge 0 multiplicity 1
 C        -3.270890         0.187992         2.767294
 C        -2.416778         0.145726         1.539255
 C        -2.964353        -0.364772         0.199946
 C        -1.939768        -1.253472         0.911979
 C        -0.560498        -1.299462         0.333856
 C        -0.323086         0.053699        -0.370766
 O         0.361127        -0.056586        -1.410254
 O        -0.796269         1.323941         0.230661
 C        -1.461936         1.291004         1.544624
 H        -4.083165        -0.481316         2.682442
 H        -2.583885        -0.248759         3.634434
 H        -3.731516         1.192397         3.118531
 H        -3.927552        -0.752655         0.311372
 H        -2.759106         0.126014        -0.769700
 H        -2.452553        -2.269595         1.300745
 H         0.273553        -1.577727         0.977963
 H        -0.446449        -2.048044        -0.420195
 H        -0.709689         1.508659         2.406467
 H        -2.132710         2.181655         1.406380
