19
Iteration:  4625charge 0 multiplicity 1
 C        -3.140796         0.018343         2.824808
 C        -2.381327         0.169686         1.528580
 C        -3.261859        -0.486790         0.403044
 C        -2.079069        -1.214658         1.089732
 C        -0.765414        -1.201337         0.160465
 C        -0.224658         0.078170        -0.407045
 O         0.579327         0.063148        -1.285845
 O        -0.722292         1.314068         0.067659
 C        -1.447121         1.289382         1.363653
 H        -3.803426         0.913152         2.995795
 H        -3.778722        -0.909337         2.746215
 H        -2.471385        -0.118730         3.728343
 H        -4.280292        -0.564522         0.714173
 H        -2.901425        -0.089817        -0.508266
 H        -2.294142        -2.136336         1.555838
 H         0.033879        -1.575709         0.794165
 H        -0.882222        -1.947210        -0.624432
 H        -0.640561         1.315961         2.118111
 H        -1.847877         2.285311         1.299604
