19
Iteration:  3283charge 0 multiplicity 1
 C        -3.388030         0.185048         2.831207
 C        -2.429244         0.074654         1.652773
 C        -3.123471        -0.505435         0.338559
 C        -1.954508        -1.227943         0.971092
 C        -0.515559        -1.143086         0.373659
 C        -0.212827         0.129460        -0.467770
 O         0.434571         0.101326        -1.461567
 O        -0.771142         1.240146         0.070033
 C        -1.444828         1.171006         1.443479
 H        -4.466466         0.217447         2.691216
 H        -3.134946        -0.712000         3.476228
 H        -3.089703         1.034946         3.529665
 H        -4.120513        -1.039128         0.438602
 H        -2.956622        -0.111807        -0.615456
 H        -2.191584        -2.211091         1.452291
 H         0.264418        -1.123974         1.141029
 H        -0.354337        -1.960041        -0.281800
 H        -0.625231         1.103644         2.195747
 H        -1.879874         2.173864         1.401567
