19
Iteration:  3158charge 0 multiplicity 1
 C        -3.061005         0.191435         2.910662
 C        -2.416565         0.064747         1.508348
 C        -3.082540        -0.606882         0.266507
 C        -1.851055        -1.245156         1.134003
 C        -0.663130        -1.230953         0.257093
 C        -0.241661         0.072467        -0.305543
 O         0.538063         0.199607        -1.236842
 O        -0.823286         1.209950         0.048513
 C        -1.791844         1.333421         1.192027
 H        -2.246646        -0.250809         3.673353
 H        -3.352959         1.229663         3.205080
 H        -3.886943        -0.486208         3.199713
 H        -4.116489        -1.042970         0.553288
 H        -2.991989        -0.189151        -0.703851
 H        -2.079711        -2.213925         1.502086
 H         0.121084        -1.581981         0.838304
 H        -0.688496        -1.815341        -0.714345
 H        -1.068803         1.733075         1.878130
 H        -2.590264         2.155477         0.915527
