19
Iteration:  2210
 C        -3.196142         0.193383         2.903446
 C        -2.441603         0.037027         1.532485
 C        -2.982962        -0.596690         0.277165
 C        -1.846898        -1.319750         1.056586
 C        -0.460531        -1.206050         0.510680
 C        -0.303140         0.051904        -0.365139
 O         0.265399         0.175181        -1.420009
 O        -0.672337         1.264230         0.125953
 C        -1.734724         1.347393         1.156130
 H        -4.233873         0.396687         2.679030
 H        -3.217152        -0.756017         3.489262
 H        -2.666963         1.039622         3.373307
 H        -3.982097        -1.062945         0.381926
 H        -2.650452        -0.338755        -0.710609
 H        -2.005333        -2.209269         1.739807
 H         0.233579        -1.159097         1.268264
 H        -0.200779        -1.998973        -0.249750
 H        -1.382268         2.027567         1.907949
 H        -2.553557         1.981437         0.856348
