19
Iteration:   896charge 0 multiplicity 1
 C        -2.063390         0.265038         2.954653
 C        -2.396226         0.033499         1.438046
 C        -3.550524        -0.844732         0.922709
 C        -2.091457        -1.244168         0.706539
 C        -1.042225        -1.120799        -0.404907
 C        -0.145668         0.171781        -0.128739
 O         1.039632         0.201119        -0.155769
 O        -0.915801         1.292148        -0.069914
 C        -2.313253         1.224086         0.387052
 H        -3.010267         0.404850         3.462982
 H        -1.623485        -0.632079         3.358162
 H        -1.466668         1.075154         3.258501
 H        -4.111225        -1.416534         1.673487
 H        -4.180596        -0.423455         0.210653
 H        -1.817266        -1.932628         1.449254
 H        -0.475783        -2.125970        -0.431561
 H        -1.450966        -0.977479        -1.476383
 H        -2.328443         2.191116         1.011904
 H        -3.031809         1.170681        -0.488477
