19
Iteration:  1588
 C        -3.274366         0.204150         2.863522
 C        -2.375497         0.135411         1.582270
 C        -3.087518        -0.664935         0.461160
 C        -1.815365        -1.242369         1.094235
 C        -0.494956        -1.174429         0.327646
 C        -0.226777         0.067654        -0.400504
 O         0.532154         0.052515        -1.378468
 O        -0.872644         1.213153        -0.007135
 C        -1.751439         1.427003         1.209842
 H        -4.244911         0.691048         2.704909
 H        -3.476998        -0.860401         3.094981
 H        -2.827388         0.543544         3.833961
 H        -4.110492        -0.897904         0.817762
 H        -3.096089        -0.288898        -0.542343
 H        -1.940471        -2.157356         1.735567
 H         0.370927        -1.260048         1.178408
 H        -0.379513        -2.099277        -0.332276
 H        -0.938445         1.768118         1.922037
 H        -2.356258         2.316691         0.979478
