19
Iteration:   681charge 0 multiplicity 1
 C        -2.878133         0.012141         2.961880
 C        -2.539336         0.121343         1.473066
 C        -3.262761        -0.638119         0.456668
 C        -1.991212        -1.152549         1.027077
 C        -0.674324        -1.142128         0.418782
 C        -0.207699         0.090940        -0.364893
 O         0.762728         0.161027        -1.091519
 O        -0.955908         1.209156        -0.206816
 C        -1.728322         1.374124         1.016780
 H        -3.546384         0.745041         3.390287
 H        -3.514852        -0.861343         3.139576
 H        -1.887791         0.052198         3.501848
 H        -4.194469        -1.118397         0.761042
 H        -3.170866        -0.304318        -0.569942
 H        -2.152863        -1.881837         1.731261
 H         0.096788        -1.308220         1.251082
 H        -0.469410        -2.039277        -0.150421
 H        -1.101909         1.623177         1.910859
 H        -2.347247         2.223004         0.814916
