19
Iteration:  3613charge 0 multiplicity 1
 C        -3.062209         0.061753         2.871229
 C        -2.451338         0.195579         1.420432
 C        -3.213427        -0.329495         0.234660
 C        -2.148095        -1.152712         0.903525
 C        -0.803354        -1.186178         0.290142
 C        -0.272425         0.051226        -0.319036
 O         0.436577        -0.018639        -1.319623
 O        -0.677351         1.299764         0.142322
 C        -1.293653         1.162046         1.471279
 H        -4.012083        -0.453269         2.714440
 H        -2.447568        -0.590180         3.515333
 H        -3.384076         1.042763         3.283395
 H        -4.173846        -0.803969         0.365292
 H        -2.744891        -0.065276        -0.721136
 H        -2.294272        -1.892443         1.661146
 H        -0.058345        -1.510298         1.078691
 H        -0.760395        -1.850835        -0.611147
 H        -0.549283         0.867975         2.264857
 H        -1.553083         2.173045         1.704128
