19
Iteration:  2496
 C        -3.367994         0.166485         2.728710
 C        -2.459871         0.133824         1.502100
 C        -2.931766        -0.682512         0.348901
 C        -1.798108        -1.182105         1.176079
 C        -0.469003        -1.080669         0.525947
 C        -0.234118         0.099791        -0.408472
 O         0.269934         0.060589        -1.522388
 O        -0.912119         1.254984         0.050107
 C        -1.476009         1.260912         1.378397
 H        -3.907343         1.081240         2.857336
 H        -4.095316        -0.666011         2.828843
 H        -2.626527         0.143902         3.572969
 H        -3.938991        -1.185659         0.424880
 H        -2.768671        -0.292706        -0.713605
 H        -1.842350        -2.051591         1.844821
 H         0.408955        -0.983210         1.248764
 H        -0.296116        -2.012762        -0.090095
 H        -0.674488         1.141846         2.096655
 H        -1.914204         2.226329         1.345432
