19
Iteration:  1031
 C        -2.558962         0.346402         3.003929
 C        -2.470635        -0.007193         1.545460
 C        -3.436297        -0.857086         0.733386
 C        -2.036060        -1.313581         0.932117
 C        -0.987913        -1.166888        -0.104804
 C        -0.130783         0.175093        -0.293679
 O         0.979585         0.217773        -0.766089
 O        -0.712372         1.381048         0.175899
 C        -2.099019         1.187429         0.521443
 H        -3.185221         1.220986         3.207889
 H        -3.067693        -0.496517         3.504037
 H        -1.517329         0.528735         3.366984
 H        -4.095325        -1.475996         1.455518
 H        -3.894673        -0.470748        -0.187499
 H        -1.755744        -2.161671         1.656362
 H        -0.247699        -1.967011        -0.042617
 H        -1.500237        -1.237940        -1.096813
 H        -2.417265         2.159102         0.896043
 H        -2.697956         0.995436        -0.456630
