19
Iteration:  4234charge 0 multiplicity 1
 C        -3.132068         0.149171         2.934878
 C        -2.452715         0.067966         1.502726
 C        -3.365431        -0.387347         0.397513
 C        -2.212632        -1.286340         0.857979
 C        -0.770116        -1.235666         0.188445
 C        -0.185917         0.094116        -0.446660
 O         0.693235         0.162877        -1.323571
 O        -0.636821         1.265689         0.148610
 C        -1.387076         1.184655         1.404314
 H        -3.419077        -0.775032         3.466281
 H        -2.768940         0.865713         3.660123
 H        -4.118536         0.607813         2.855553
 H        -4.359467        -0.778138         0.588687
 H        -3.191439         0.033488        -0.588126
 H        -2.386767        -2.253776         1.260871
 H        -0.146246        -1.418075         1.034919
 H        -0.667236        -2.114797        -0.466985
 H        -0.691553         0.758850         2.153410
 H        -1.830430         2.220956         1.646777
