19
Iteration:  4689charge 0 multiplicity 1
 C        -3.044766         0.227169         3.023281
 C        -2.532912         0.016201         1.568482
 C        -3.271342        -0.363112         0.311614
 C        -2.115740        -1.207479         0.800228
 C        -0.650239        -1.266969         0.323061
 C        -0.229031         0.049397        -0.359584
 O         0.596476         0.183030        -1.303376
 O        -0.747988         1.197318         0.046767
 C        -1.465339         1.142387         1.310122
 H        -3.338681         1.336165         3.131250
 H        -3.852850        -0.554826         3.068733
 H        -2.220814        -0.195432         3.700444
 H        -4.244274        -0.760607         0.478789
 H        -3.164112         0.295892        -0.532517
 H        -2.542855        -2.170151         1.043849
 H         0.071859        -1.284643         1.115064
 H        -0.406798        -2.062979        -0.364138
 H        -0.871156         1.091414         2.173325
 H        -2.052083         2.086025         1.448218
