19
Iteration:  1397charge 0 multiplicity 1
 C        -3.173878         0.328095         2.939354
 C        -2.522153         0.099335         1.521815
 C        -3.102655        -0.700903         0.319548
 C        -1.862506        -1.170757         1.066982
 C        -0.430592        -1.324118         0.417608
 C        -0.171559        -0.035926        -0.402383
 O         0.336059         0.204858        -1.500452
 O        -0.647340         1.166388         0.271758
 C        -1.794214         1.387791         1.075964
 H        -4.100044         0.904946         2.853493
 H        -3.340926        -0.659587         3.393429
 H        -2.468019         0.799558         3.599846
 H        -4.068988        -1.188407         0.666158
 H        -3.168011        -0.301348        -0.716203
 H        -1.989074        -2.011983         1.751042
 H         0.236447        -1.140447         1.401523
 H        -0.223694        -2.271097        -0.076126
 H        -1.408951         2.018002         1.939613
 H        -2.555030         1.943433         0.463709
