19
Iteration:  2421charge 0 multiplicity 1
 C        -3.209145         0.223954         2.989836
 C        -2.533851         0.102525         1.641247
 C        -3.119251        -0.655979         0.500125
 C        -1.771164        -1.176659         1.040426
 C        -0.482265        -1.247638         0.260896
 C        -0.115119         0.022448        -0.373156
 O         0.567743         0.229984        -1.366946
 O        -0.841602         1.137239         0.014265
 C        -1.863058         1.327132         1.096428
 H        -4.150674         0.819541         2.887334
 H        -3.635584        -0.667872         3.484802
 H        -2.514579         0.740706         3.738894
 H        -4.106029        -1.290213         0.692390
 H        -3.176447        -0.028463        -0.459015
 H        -1.947773        -2.171952         1.448405
 H         0.376471        -1.423682         0.893918
 H        -0.432991        -1.976209        -0.554505
 H        -1.225343         1.856248         1.914216
 H        -2.434839         2.152661         0.613384
