19
Iteration:  4053charge 0 multiplicity 1
 C        -3.368149         0.149477         2.878177
 C        -2.458682         0.135535         1.636853
 C        -3.055874        -0.271938         0.299391
 C        -2.021190        -1.207267         0.958625
 C        -0.586719        -1.281330         0.262132
 C        -0.186755         0.021051        -0.423611
 O         0.403501         0.076699        -1.477218
 O        -0.721326         1.212198         0.151379
 C        -1.378104         1.164738         1.498672
 H        -4.457152         0.035480         2.562106
 H        -3.207163        -0.811196         3.415200
 H        -3.291232         1.092753         3.500421
 H        -4.175752        -0.559143         0.239628
 H        -2.729098         0.418649        -0.499628
 H        -2.261903        -2.112419         1.465448
 H         0.107321        -1.689267         0.944115
 H        -0.649032        -1.948166        -0.601480
 H        -0.531959         1.298285         2.227798
 H        -1.811278         2.164892         1.523076
