19
Iteration:  1086
 C        -2.783264         0.392806         2.935474
 C        -2.627534         0.108764         1.452646
 C        -3.403341        -0.977220         0.614631
 C        -1.942114        -1.179380         1.045868
 C        -0.780946        -1.230181         0.008050
 C        -0.150762         0.087417        -0.328722
 O         0.727033         0.261228        -1.113506
 O        -0.570434         1.170797         0.390001
 C        -1.995878         1.340678         0.721568
 H        -3.757841         0.744123         3.220129
 H        -2.510477        -0.520135         3.477890
 H        -2.034328         1.133598         3.267506
 H        -4.323477        -1.412610         1.087048
 H        -3.484376        -0.778958        -0.475184
 H        -1.601327        -1.804581         1.903150
 H         0.054660        -1.760908         0.501398
 H        -0.921526        -1.829783        -0.924025
 H        -1.958126         2.224933         1.321673
 H        -2.513480         1.616807        -0.290724
