19
Iteration:  3523
 C        -3.031609         0.149066         2.798645
 C        -2.447815         0.158076         1.442883
 C        -3.261585        -0.454786         0.335690
 C        -2.100966        -1.194448         0.904953
 C        -0.813470        -1.206102         0.204543
 C        -0.304253         0.087365        -0.318622
 O         0.513116        -0.013498        -1.223858
 O        -0.658520         1.347785         0.131023
 C        -1.376873         1.175036         1.398230
 H        -3.871204         0.787062         3.019593
 H        -3.206148        -0.946955         2.994052
 H        -2.297726         0.393617         3.603157
 H        -4.295523        -0.784093         0.659607
 H        -3.186784         0.002444        -0.633365
 H        -2.253003        -2.152876         1.393484
 H        -0.001044        -1.625001         0.950280
 H        -0.795288        -1.835632        -0.682040
 H        -0.609079         1.083901         2.270480
 H        -1.878755         2.199939         1.601015
