19
Iteration:  1006charge 0 multiplicity 1
 C        -2.509732         0.474819         2.971406
 C        -2.524192         0.011675         1.515961
 C        -3.462729        -0.967324         0.897422
 C        -1.914937        -1.254053         0.914850
 C        -1.046060        -1.059351        -0.441094
 C        -0.107646         0.135890        -0.260296
 O         1.033155         0.206335        -0.564329
 O        -0.733816         1.239586         0.143188
 C        -2.208271         1.147560         0.549352
 H        -2.844927         1.489711         3.086192
 H        -3.279530        -0.088029         3.442595
 H        -1.569192         0.343802         3.408261
 H        -3.999713        -1.602132         1.566208
 H        -3.928615        -0.798188        -0.098600
 H        -1.399517        -1.905476         1.581600
 H        -0.466831        -2.047214        -0.632485
 H        -1.708620        -0.785532        -1.335408
 H        -2.142187         2.101365         1.193842
 H        -2.907684         1.323128        -0.325280
