19
Iteration:   675charge 0 multiplicity 1
 C        -2.913115         0.009430         2.898398
 C        -2.550591         0.167497         1.492762
 C        -3.262298        -0.638998         0.437207
 C        -1.965214        -1.118365         1.058034
 C        -0.617773        -1.182843         0.411908
 C        -0.215096         0.107728        -0.307977
 O         0.734056         0.147577        -1.112414
 O        -1.012327         1.188041        -0.211198
 C        -1.671708         1.369110         1.036211
 H        -3.467357         0.896796         3.373513
 H        -3.574491        -0.835965         3.152775
 H        -1.996234        -0.167513         3.443173
 H        -4.231029        -1.142387         0.737965
 H        -3.151869        -0.323566        -0.609620
 H        -2.097810        -1.991308         1.839833
 H         0.105976        -1.176871         1.200871
 H        -0.261489        -1.982339        -0.320539
 H        -0.980634         1.517805         1.870323
 H        -2.308063         2.314354         1.050372
