19
Iteration:  4724
 C        -3.124029         0.121693         2.822797
 C        -2.418577         0.134457         1.498586
 C        -3.226581        -0.412958         0.308336
 C        -2.065535        -1.163468         1.012747
 C        -0.710779        -1.195822         0.271912
 C        -0.322883         0.072646        -0.407103
 O         0.558425         0.055363        -1.317237
 O        -0.752379         1.302629         0.129034
 C        -1.390202         1.147856         1.408461
 H        -3.908913         0.935152         3.105827
 H        -3.696793        -0.854127         2.826372
 H        -2.340531         0.112993         3.662890
 H        -4.196757        -0.792822         0.570663
 H        -3.117041         0.045387        -0.676497
 H        -2.243092        -2.160123         1.311220
 H         0.087691        -1.463496         0.942621
 H        -0.825704        -2.019141        -0.451610
 H        -0.569870         0.930480         2.005780
 H        -1.742165         2.128653         1.612386
