19
Iteration:  2920
 C        -3.325998         0.228209         2.801528
 C        -2.424858         0.024126         1.563571
 C        -2.958857        -0.700345         0.316102
 C        -1.802843        -1.286297         1.121618
 C        -0.407984        -0.989421         0.579400
 C        -0.236117         0.176488        -0.377072
 O         0.301613         0.137417        -1.471290
 O        -0.931494         1.195467        -0.031700
 C        -1.595773         1.188915         1.289601
 H        -3.588372         1.309407         3.045418
 H        -4.243087        -0.382962         2.651445
 H        -2.726516        -0.072970         3.656451
 H        -3.953637        -1.097304         0.348445
 H        -2.655285        -0.321734        -0.721563
 H        -1.845716        -2.245382         1.570921
 H         0.294094        -0.721484         1.425804
 H        -0.065027        -1.896998        -0.025089
 H        -0.791739         1.308271         2.036303
 H        -2.089665         2.130167         1.401882
