19
Iteration:  1334charge 0 multiplicity 1
 C        -3.262975         0.252486         2.778459
 C        -2.505220         0.151756         1.471799
 C        -3.052912        -0.767472         0.447476
 C        -1.790260        -1.231815         1.209148
 C        -0.557148        -1.237355         0.389863
 C        -0.265571         0.087553        -0.404577
 O         0.290814         0.140654        -1.466154
 O        -0.573964         1.251963         0.241575
 C        -1.671659         1.362415         1.074787
 H        -3.478169         1.358329         2.954432
 H        -4.183009        -0.362704         2.836276
 H        -2.645908        -0.195681         3.595411
 H        -3.910110        -1.421934         0.727806
 H        -2.945645        -0.599420        -0.630157
 H        -1.853685        -1.951365         2.016799
 H         0.287239        -1.328468         0.993514
 H        -0.593191        -2.113018        -0.262553
 H        -1.292935         1.901798         2.054238
 H        -2.343196         2.060544         0.590955
