19
Iteration:   762charge 0 multiplicity 1
 C        -2.911038         0.318306         2.902673
 C        -2.561709         0.128226         1.419279
 C        -3.297984        -1.015260         0.785093
 C        -1.872331        -1.159190         1.093867
 C        -0.997247        -1.166662        -0.191025
 C        -0.156204         0.135253        -0.392769
 O         0.863432         0.172652        -0.999845
 O        -0.526429         1.239987         0.362633
 C        -2.004051         1.351342         0.741461
 H        -3.830578         0.780734         3.031868
 H        -2.855221        -0.666187         3.286124
 H        -2.157723         0.798134         3.434061
 H        -4.075993        -1.451931         1.392794
 H        -3.567967        -0.955306        -0.307842
 H        -1.609907        -1.756679         2.054802
 H        -0.316837        -1.993654        -0.129017
 H        -1.695202        -1.295666        -1.094404
 H        -1.980255         2.228420         1.374507
 H        -2.433310         1.646898        -0.240208
