19
Iteration:  1391
 C        -3.150350         0.274173         2.915267
 C        -2.559279         0.133728         1.500574
 C        -3.157779        -0.719795         0.331067
 C        -1.823290        -1.205485         1.108259
 C        -0.419802        -1.307450         0.446583
 C        -0.129724         0.031057        -0.362984
 O         0.271522         0.175929        -1.481453
 O        -0.577688         1.181860         0.250165
 C        -1.826372         1.390747         1.043067
 H        -4.074348         0.909363         2.986280
 H        -3.535028        -0.710627         3.247874
 H        -2.446655         0.780711         3.623825
 H        -4.153764        -1.072736         0.536616
 H        -3.186280        -0.209227        -0.619432
 H        -1.919972        -2.101843         1.735859
 H         0.308271        -1.315027         1.190303
 H        -0.311560        -2.258367        -0.117512
 H        -1.425689         2.016816         1.866470
 H        -2.314740         2.107253         0.355614
