19
Iteration:  2983charge 0 multiplicity 1
 C        -3.389767         0.123669         2.720405
 C        -2.545160         0.022116         1.579410
 C        -3.071724        -0.748446         0.417702
 C        -1.744918        -1.203229         1.279381
 C        -0.389244        -1.104010         0.500234
 C        -0.252520         0.123661        -0.501278
 O         0.311251         0.158052        -1.547892
 O        -0.695644         1.352634         0.044213
 C        -1.606658         1.280781         1.280272
 H        -4.147348         0.981664         2.826807
 H        -4.128570        -0.684996         2.695234
 H        -2.842867        -0.006226         3.619314
 H        -3.929809        -1.335248         0.622186
 H        -2.833592        -0.416696        -0.649106
 H        -1.864612        -2.067058         1.886462
 H         0.476733        -1.018425         1.220342
 H        -0.346575        -2.148117         0.046444
 H        -0.902704         1.264257         2.120212
 H        -2.092360         2.370778         1.234975
