19
Iteration:  2736charge 0 multiplicity 1
 C        -2.996885         0.229885         2.984618
 C        -2.473319         0.067747         1.650452
 C        -3.158449        -0.553284         0.379526
 C        -1.903627        -1.167605         0.990308
 C        -0.525711        -1.305795         0.296333
 C        -0.160956         0.065173        -0.373543
 O         0.704557         0.291286        -1.175240
 O        -1.048581         1.093213        -0.052408
 C        -1.836787         1.253826         1.047944
 H        -3.513715         1.092137         3.252904
 H        -3.491066        -0.698966         3.304969
 H        -2.183468         0.413303         3.703311
 H        -4.093911        -1.243205         0.333042
 H        -3.097013         0.081306        -0.513916
 H        -2.108393        -2.039903         1.581470
 H         0.193130        -1.516260         1.031191
 H        -0.420738        -2.067447        -0.481994
 H        -1.283854         1.847867         1.847771
 H        -2.589235         1.937260         0.763224
