19
Iteration:  3034
 C        -3.070832         0.148503         2.869660
 C        -2.487527         0.054415         1.420807
 C        -2.992454        -0.580638         0.271135
 C        -1.831836        -1.333504         1.023026
 C        -0.402228        -1.239345         0.570324
 C        -0.285196         0.142890        -0.344488
 O         0.368619         0.123676        -1.361224
 O        -0.898570         1.328812         0.044073
 C        -1.751926         1.316315         1.207194
 H        -4.143458         0.196210         3.009198
 H        -2.875467        -0.721625         3.506621
 H        -2.731579         1.075261         3.447878
 H        -3.856466        -1.144044         0.536205
 H        -3.001580        -0.109508        -0.736831
 H        -2.283946        -2.120615         1.716482
 H         0.357843        -1.338096         1.324403
 H        -0.260310        -2.019179        -0.104746
 H        -1.233791         1.753489         2.068472
 H        -2.393450         2.123868         0.974299
