19
Iteration:  3267
 C        -3.253648         0.199530         2.850105
 C        -2.474098         0.033789         1.543520
 C        -3.035904        -0.423760         0.289572
 C        -1.883611        -1.273220         0.998086
 C        -0.463379        -1.273023         0.374742
 C        -0.211266         0.078783        -0.364032
 O         0.387842         0.133248        -1.382391
 O        -0.952661         1.258998         0.070277
 C        -1.459779         1.235833         1.375703
 H        -4.194101         0.672483         2.393858
 H        -3.497541        -0.670982         3.461960
 H        -2.723292         0.915105         3.452572
 H        -4.030533        -0.744265         0.430097
 H        -2.871679         0.229934        -0.637445
 H        -2.190848        -2.193419         1.476885
 H         0.320829        -1.626651         1.083910
 H        -0.379048        -2.036841        -0.481176
 H        -0.702849         1.181313         2.161894
 H        -2.080036         2.099608         1.723215
