19
Iteration:  4629charge 0 multiplicity 1
 C        -3.131896        -0.024091         2.812329
 C        -2.383594         0.115870         1.541469
 C        -3.252285        -0.454534         0.409945
 C        -2.027094        -1.177434         1.062374
 C        -0.786512        -1.219438         0.195689
 C        -0.259426         0.046450        -0.356887
 O         0.586672         0.068361        -1.292261
 O        -0.733745         1.333090         0.061747
 C        -1.429420         1.338831         1.318827
 H        -3.701029         0.847877         3.060310
 H        -3.878202        -0.793522         2.844073
 H        -2.569902        -0.131363         3.692287
 H        -4.319903        -0.626089         0.643763
 H        -2.990117        -0.106072        -0.662048
 H        -2.419862        -2.091886         1.601007
 H         0.118933        -1.657304         0.776689
 H        -0.967820        -1.952779        -0.634073
 H        -0.592428         1.266964         2.166481
 H        -1.838281         2.355686         1.282348
