19
Iteration:   308
 C        -2.904664         0.287570         3.013681
 C        -2.480938         0.041157         1.587536
 C        -3.328919        -0.675267         0.488399
 C        -1.982313        -1.182525         0.917142
 C        -0.970239        -1.238858        -0.157155
 C        -0.169785         0.041049        -0.369065
 O         0.926894         0.132089        -0.816844
 O        -0.832867         1.204178        -0.057289
 C        -1.714610         1.353329         1.098070
 H        -2.832537         1.347484         3.239767
 H        -3.922417        -0.049535         3.456070
 H        -2.122198        -0.175879         3.737742
 H        -4.149588        -1.322180         0.650702
 H        -3.277047        -0.083474        -0.442381
 H        -2.089014        -2.126984         1.593010
 H        -0.163276        -2.046011        -0.073500
 H        -1.413823        -1.388805        -1.119380
 H        -1.196294         1.826734         1.990651
 H        -2.468209         2.155302         0.908851
