19
Iteration:  3921
 C        -3.279305        -0.007321         2.843670
 C        -2.383483         0.216601         1.595288
 C        -3.329049        -0.355413         0.482201
 C        -2.081407        -1.085521         0.899931
 C        -0.805096        -1.191662         0.187220
 C        -0.174907         0.069652        -0.420503
 O         0.628457        -0.044085        -1.317993
 O        -0.697928         1.274692         0.037063
 C        -1.287336         1.201268         1.413243
 H        -3.481400        -1.119405         2.959515
 H        -2.808695         0.521990         3.652156
 H        -4.219651         0.576851         2.876770
 H        -4.287406        -0.673890         0.758306
 H        -3.270463         0.263409        -0.464453
 H        -2.162213        -2.003180         1.481025
 H        -0.152378        -1.598812         0.949078
 H        -0.871593        -1.917552        -0.651858
 H        -0.502506         1.024493         2.153189
 H        -1.795753         2.104675         1.651195
