19
Iteration:  1393
 C        -3.159105         0.293982         2.924373
 C        -2.551128         0.121514         1.508886
 C        -3.143238        -0.716793         0.323176
 C        -1.833237        -1.192764         1.097515
 C        -0.423797        -1.320189         0.434204
 C        -0.137164         0.008641        -0.375891
 O         0.290328         0.187346        -1.488162
 O        -0.601286         1.178531         0.257852
 C        -1.814561         1.392373         1.061841
 H        -4.067340         0.893233         2.955535
 H        -3.480829        -0.703813         3.285828
 H        -2.443807         0.807855         3.633103
 H        -4.105444        -1.071360         0.569682
 H        -3.209826        -0.227079        -0.672279
 H        -1.920598        -2.096150         1.746935
 H         0.305946        -1.241864         1.295719
 H        -0.280635        -2.288234        -0.105058
 H        -1.430308         1.981615         1.822451
 H        -2.402895         2.085413         0.350583
