19
Iteration:   807charge 0 multiplicity 1
 C        -2.754539         0.525558         2.932159
 C        -2.550725         0.031724         1.507920
 C        -3.383652        -1.105693         0.904129
 C        -1.866972        -1.267008         0.959849
 C        -1.196648        -1.031112        -0.409794
 C        -0.152697         0.190787        -0.382410
 O         1.026820         0.235231        -0.773856
 O        -0.557182         1.213659         0.447199
 C        -2.043860         1.170886         0.565557
 H        -3.142850         1.495967         2.832575
 H        -3.332615        -0.197790         3.439860
 H        -1.860582         0.565797         3.462874
 H        -3.962367        -1.640822         1.613428
 H        -3.917606        -1.096853        -0.063354
 H        -1.389619        -2.116128         1.560658
 H        -0.557248        -1.806591        -0.848666
 H        -1.971283        -0.722788        -1.199416
 H        -2.221062         2.241338         0.860172
 H        -2.503257         0.953236        -0.434561
