19
Iteration:  3362
 C        -3.226228         0.216632         2.903071
 C        -2.437170         0.090846         1.561249
 C        -2.923183        -0.362760         0.251168
 C        -1.941079        -1.353334         0.962168
 C        -0.590289        -1.289013         0.350244
 C        -0.278394         0.009301        -0.416762
 O         0.299436         0.141802        -1.451439
 O        -0.677455         1.202039         0.193271
 C        -1.577406         1.277721         1.424708
 H        -3.216591        -0.729979         3.419437
 H        -2.847237         1.017359         3.534932
 H        -4.309689         0.534689         2.708747
 H        -3.969081        -0.559367         0.205841
 H        -2.664696         0.355495        -0.625931
 H        -2.328332        -2.327657         1.157977
 H         0.256828        -1.331616         1.031775
 H        -0.402438        -2.123944        -0.346859
 H        -1.234484         1.656377         2.373837
 H        -2.309876         1.966704         1.129231
