19
Iteration:   952
 C        -2.258694         0.387302         2.779933
 C        -2.465880         0.081171         1.400639
 C        -3.273074        -1.154271         0.945332
 C        -1.827078        -1.211180         0.873030
 C        -1.248246        -0.853340        -0.501241
 C        -0.229816         0.206627        -0.159101
 O         0.891952        -0.105001        -0.193608
 O        -0.813050         1.408759         0.172688
 C        -2.217299         1.227728         0.376012
 H        -2.912167         1.223220         3.020983
 H        -2.467998        -0.398765         3.488370
 H        -1.216640         0.633186         2.936958
 H        -3.678364        -1.658361         1.780707
 H        -3.949342        -1.177252         0.049389
 H        -1.233914        -1.808673         1.507992
 H        -0.862955        -1.821153        -1.022183
 H        -2.073700        -0.419209        -1.152121
 H        -2.555773         2.295891         0.683905
 H        -2.817406         1.097625        -0.600286
