19
Iteration:   994charge 0 multiplicity 1
 C        -2.511537         0.450773         2.968930
 C        -2.536914         0.099830         1.421277
 C        -3.354086        -1.128232         0.972269
 C        -1.870390        -1.150029         0.796060
 C        -1.145095        -1.048967        -0.454097
 C        -0.171206         0.066932        -0.282116
 O         1.035155         0.173112        -0.452465
 O        -0.774850         1.217640         0.178500
 C        -2.138594         1.274967         0.518017
 H        -2.704681         1.501294         3.112592
 H        -3.166169        -0.129270         3.582148
 H        -1.565459         0.277949         3.404207
 H        -3.736553        -1.722306         1.740637
 H        -4.083921        -0.956155         0.181971
 H        -1.454275        -1.787172         1.500788
 H        -0.537841        -1.955848        -0.788625
 H        -1.835800        -0.808255        -1.328410
 H        -2.364444         2.271539         1.048406
 H        -2.723212         1.309056        -0.433212
