19
Iteration:  3880
 C        -3.073127         0.297463         2.931765
 C        -2.489548         0.033575         1.587683
 C        -3.140149        -0.330052         0.259516
 C        -2.076439        -1.184153         0.840067
 C        -0.761638        -1.320688         0.164532
 C        -0.238678        -0.019772        -0.332257
 O         0.521388         0.145657        -1.292694
 O        -0.775383         1.174342         0.172595
 C        -1.432682         1.188647         1.435651
 H        -3.760666        -0.515652         3.146183
 H        -2.183286         0.326421         3.599145
 H        -3.585238         1.285238         2.901119
 H        -4.131165        -0.734286         0.216485
 H        -2.782410         0.120396        -0.700988
 H        -2.477070        -2.017175         1.294922
 H        -0.005514        -1.906276         0.831450
 H        -0.889768        -1.970747        -0.697074
 H        -0.618821         1.139917         2.207509
 H        -1.718220         2.207487         1.372783
