19
Iteration:  2147
 C        -3.485972         0.245003         2.666398
 C        -2.419462         0.014509         1.599725
 C        -2.923433        -0.730903         0.424309
 C        -1.814499        -1.330119         1.191080
 C        -0.461463        -1.096001         0.513022
 C        -0.242854         0.020823        -0.464509
 O         0.214507         0.176214        -1.545493
 O        -0.803561         1.369747         0.000746
 C        -1.413968         1.296532         1.389267
 H        -4.337457         0.813426         2.377077
 H        -3.981670        -0.704878         3.055523
 H        -2.986433         0.744389         3.563703
 H        -3.892103        -1.303405         0.473593
 H        -2.765962        -0.531996        -0.619495
 H        -1.853363        -2.326520         1.734325
 H         0.312900        -0.889086         1.385538
 H        -0.038384        -2.017864         0.138481
 H        -0.715458         1.196400         2.257826
 H        -1.945210         2.289649         1.393794
