19
Iteration:  4032charge 0 multiplicity 1
 C        -3.390957         0.044925         2.919127
 C        -2.483572         0.160640         1.596330
 C        -3.175546        -0.341220         0.346519
 C        -2.006868        -1.100488         0.975008
 C        -0.706562        -1.245113         0.266323
 C        -0.263347         0.005445        -0.539204
 O         0.523127         0.123698        -1.466788
 O        -0.567796         1.149149         0.161286
 C        -1.371853         1.235031         1.428350
 H        -4.513572        -0.048688         2.792675
 H        -3.282889        -0.855802         3.616623
 H        -3.315289         1.027350         3.503728
 H        -4.159295        -0.888584         0.623262
 H        -3.030832         0.205179        -0.621163
 H        -2.390645        -2.011278         1.343722
 H         0.047008        -1.097575         1.001587
 H        -0.498751        -2.166898        -0.223429
 H        -0.596946         1.094848         2.310860
 H        -1.511952         2.302743         1.509537
