19
Iteration:   132charge 0 multiplicity 1
 C        -3.387954         0.226459         2.721350
 C        -2.396335         0.072467         1.565907
 C        -2.953114        -0.324354         0.255687
 C        -1.909692        -1.187972         1.011684
 C        -0.561652        -1.226511         0.347981
 C        -0.277057        -0.013260        -0.400427
 O         0.254360         0.140847        -1.480748
 O        -0.709439         1.114356         0.238926
 C        -1.403003         1.210475         1.514294
 H        -3.869669        -0.682206         3.026358
 H        -2.924214         0.661995         3.593504
 H        -4.174041         0.883539         2.345569
 H        -3.954309        -0.577730         0.533213
 H        -2.722035         0.009403        -0.729607
 H        -2.224721        -2.227460         1.263298
 H         0.289082        -1.451543         1.068872
 H        -0.536934        -2.035591        -0.377596
 H        -0.731297         1.151554         2.378861
 H        -1.966439         2.132243         1.457867
