19
Iteration:  3478charge 0 multiplicity 1
 C        -3.240798         0.149438         2.961229
 C        -2.473535         0.095623         1.605447
 C        -3.185582        -0.259960         0.390994
 C        -2.004872        -1.154941         0.886037
 C        -0.643369        -1.281445         0.215512
 C        -0.161966         0.020373        -0.402018
 O         0.534177         0.123559        -1.405811
 O        -0.686793         1.100597         0.154537
 C        -1.520960         1.237399         1.339237
 H        -3.109098         1.153949         3.434084
 H        -4.316993        -0.154196         2.863399
 H        -2.857516        -0.567771         3.711698
 H        -3.963705        -0.931728         0.507628
 H        -3.260427         0.284227        -0.581236
 H        -2.502142        -1.967097         1.422215
 H         0.192895        -1.834585         0.832541
 H        -0.809217        -1.886253        -0.683949
 H        -0.890758         1.398575         2.289443
 H        -2.020142         2.275838         1.153318
