19
Iteration:  3352
 C        -3.193294         0.208856         2.839436
 C        -2.393223         0.026049         1.559407
 C        -3.005432        -0.383478         0.197119
 C        -1.906511        -1.283532         0.931376
 C        -0.525743        -1.307716         0.313538
 C        -0.378774         0.027120        -0.323446
 O         0.255350         0.096710        -1.382904
 O        -0.656365         1.238782         0.211113
 C        -1.592060         1.327677         1.414586
 H        -3.353996        -0.754530         3.345138
 H        -2.582279         0.763938         3.550855
 H        -4.178079         0.738794         2.760376
 H        -3.957656        -0.870250         0.142793
 H        -2.656428         0.248980        -0.711700
 H        -2.347292        -2.129013         1.428156
 H         0.228118        -1.490975         1.129626
 H        -0.420609        -2.037293        -0.547145
 H        -0.886757         1.687583         2.233386
 H        -2.251923         2.128514         1.123655
