19
Iteration:  1541charge 0 multiplicity 1
 C        -2.978825         0.111309         2.954671
 C        -2.564894         0.143511         1.424506
 C        -3.213110        -0.699170         0.327080
 C        -1.987342        -1.233825         1.085506
 C        -0.539384        -1.114865         0.515783
 C        -0.240708         0.054859        -0.404948
 O         0.558019         0.107324        -1.282617
 O        -0.830539         1.247016        -0.057445
 C        -1.705047         1.384137         1.130925
 H        -3.228497         1.154077         3.228654
 H        -3.695781        -0.631829         3.323016
 H        -2.061675        -0.110197         3.471937
 H        -4.138038        -1.181918         0.508146
 H        -3.000650        -0.604110        -0.755515
 H        -2.019822        -1.977639         1.878973
 H        -0.016449        -0.974380         1.555685
 H        -0.042177        -1.983117         0.009962
 H        -1.127455         1.761459         1.945413
 H        -2.324370         2.165050         0.750333
