19
Iteration:  1594
 C        -3.289598         0.255090         2.833519
 C        -2.366407         0.131315         1.637899
 C        -3.035412        -0.679084         0.470058
 C        -1.844004        -1.243872         1.114870
 C        -0.500589        -1.241080         0.355001
 C        -0.244709         0.066326        -0.434024
 O         0.525535         0.115930        -1.392468
 O        -0.912554         1.202611         0.025914
 C        -1.678823         1.381701         1.173545
 H        -4.275960         0.710957         2.613754
 H        -3.433466        -0.818364         2.974058
 H        -2.875237         0.702568         3.722848
 H        -4.030299        -0.981728         0.732746
 H        -2.956989        -0.075199        -0.464584
 H        -1.854702        -2.191026         1.635429
 H         0.144246        -1.345295         1.135412
 H        -0.340016        -2.051597        -0.325414
 H        -1.006449         1.762022         1.933145
 H        -2.423140         2.182091         0.981441
