19
Iteration:   697charge 0 multiplicity 1
 C        -2.834163         0.110575         3.062436
 C        -2.508233         0.105473         1.597028
 C        -3.352647        -0.652735         0.421834
 C        -2.053910        -1.227819         0.970272
 C        -0.644188        -1.194445         0.320093
 C        -0.208777         0.097206        -0.403899
 O         0.854404         0.131096        -1.073340
 O        -0.851466         1.258493        -0.138833
 C        -1.877818         1.372280         0.963731
 H        -3.752449         0.702548         3.335895
 H        -2.993556        -0.911932         3.426309
 H        -2.024564         0.405195         3.688502
 H        -4.276142        -1.196505         0.709742
 H        -3.431078        -0.102627        -0.540488
 H        -2.124746        -2.227141         1.589691
 H         0.105625        -1.215706         1.079003
 H        -0.384988        -1.978651        -0.486443
 H        -1.385304         2.017591         1.696059
 H        -2.776079         1.987178         0.604076
