19
Iteration:  4481
 C        -3.182803         0.217843         2.866742
 C        -2.433448         0.045247         1.521706
 C        -3.048311        -0.339932         0.149313
 C        -1.973232        -1.270177         0.890160
 C        -0.549123        -1.186017         0.432572
 C        -0.282736         0.040166        -0.341814
 O         0.238944         0.086980        -1.492098
 O        -0.676090         1.196905         0.218868
 C        -1.469508         1.160504         1.450018
 H        -3.355145         1.127186         3.464469
 H        -4.233720        -0.174039         2.821124
 H        -2.868630        -0.451788         3.703695
 H        -4.062803        -0.619682         0.197578
 H        -2.632398         0.277864        -0.633357
 H        -2.435331        -2.107558         1.387734
 H         0.160513        -1.217768         1.293234
 H        -0.160392        -1.915210        -0.280008
 H        -0.722689         1.518189         2.293349
 H        -2.188591         2.040248         1.380400
