19
Iteration:  2078charge 0 multiplicity 1
 C        -3.204592        -0.006241         2.828077
 C        -2.451722         0.059009         1.546292
 C        -3.073159        -0.642338         0.329164
 C        -1.855048        -1.156610         1.141594
 C        -0.465659        -1.021515         0.633897
 C        -0.264793         0.085710        -0.407308
 O         0.321257         0.029310        -1.458971
 O        -0.791244         1.309872        -0.062042
 C        -1.643365         1.348210         1.228538
 H        -3.576710         0.970656         3.267516
 H        -4.195103        -0.548147         2.738858
 H        -2.585653        -0.518776         3.610146
 H        -3.931795        -1.219165         0.105857
 H        -2.637874        -0.310584        -0.651563
 H        -2.042138        -1.978136         1.780115
 H         0.213643        -0.609843         1.428997
 H         0.051801        -2.017919         0.403615
 H        -0.789324         1.616074         1.881783
 H        -2.256220         2.232326         1.045194
