19
Iteration:  1693
 C        -3.266756         0.055215         2.920003
 C        -2.461576         0.135725         1.554413
 C        -2.960303        -0.621036         0.237440
 C        -1.809732        -1.089657         1.085254
 C        -0.357793        -1.112918         0.570586
 C        -0.244995         0.008646        -0.414098
 O         0.288280        -0.019081        -1.469698
 O        -0.820298         1.246534         0.058463
 C        -1.693809         1.415228         1.217693
 H        -3.834677         1.013118         3.059206
 H        -4.000409        -0.754810         2.839321
 H        -2.632381        -0.134400         3.780808
 H        -3.988566        -1.028117         0.377275
 H        -2.766063        -0.012632        -0.602121
 H        -2.032191        -2.096202         1.552395
 H         0.380739        -1.016239         1.301255
 H        -0.294873        -2.102767         0.121045
 H        -1.075599         1.870240         2.073772
 H        -2.467494         2.162549         0.901737
