19
Iteration:  2316charge 0 multiplicity 1
 C        -3.191910         0.325390         2.974302
 C        -2.364893        -0.013392         1.677573
 C        -3.116766        -0.606012         0.439661
 C        -1.824006        -1.273471         1.022925
 C        -0.544895        -1.249134         0.258493
 C        -0.212741         0.080042        -0.367343
 O         0.668669         0.333870        -1.147180
 O        -1.106102         1.087520        -0.226069
 C        -1.674118         1.273085         1.178061
 H        -3.121922         1.446712         3.019758
 H        -4.207498        -0.112452         2.931406
 H        -2.826078         0.029316         3.949826
 H        -4.065807        -1.175071         0.616976
 H        -3.089091        -0.146484        -0.544855
 H        -2.002323        -2.231752         1.502079
 H         0.362126        -1.512413         0.977157
 H        -0.380292        -1.952541        -0.611087
 H        -0.768483         1.487969         1.803891
 H        -2.512436         2.023979         1.009046
