19
Iteration:  1927
 C        -3.097796         0.195151         2.955839
 C        -2.414547         0.121869         1.571979
 C        -3.098282        -0.684840         0.363387
 C        -1.819240        -1.279314         1.084035
 C        -0.594070        -1.236988         0.294754
 C        -0.286861         0.088709        -0.379568
 O         0.633683         0.157264        -1.170562
 O        -0.979659         1.220719        -0.096099
 C        -1.773457         1.370859         1.108945
 H        -3.546662         1.145610         3.070937
 H        -3.763590        -0.629212         3.224942
 H        -2.292276         0.157656         3.704482
 H        -4.149249        -0.970608         0.561539
 H        -2.879547        -0.133935        -0.548647
 H        -1.845328        -2.031433         1.850436
 H         0.238201        -1.449546         0.945930
 H        -0.506259        -1.936414        -0.547388
 H        -1.057834         1.656216         1.893659
 H        -2.414897         2.273987         1.002552
