19
Iteration:  2052charge 0 multiplicity 1
 C        -3.153634         0.031425         2.945064
 C        -2.449530         0.118012         1.524820
 C        -3.139572        -0.655120         0.348639
 C        -1.851631        -1.172752         1.008970
 C        -0.431174        -1.031572         0.508072
 C        -0.203088         0.082543        -0.368819
 O         0.397683        -0.043593        -1.391085
 O        -0.803493         1.313643         0.029850
 C        -1.735649         1.413785         1.139403
 H        -3.949475         0.691886         3.317986
 H        -3.758251        -0.843774         2.790153
 H        -2.451575        -0.235517         3.724607
 H        -4.121391        -1.159295         0.541815
 H        -3.138823        -0.343001        -0.673920
 H        -2.004563        -2.133649         1.591698
 H         0.316932        -0.869030         1.232337
 H        -0.100797        -1.932574         0.083649
 H        -1.066276         1.873206         1.899187
 H        -2.423104         2.234499         0.879747
