19
Iteration:  4507
 C        -3.321394        -0.016188         2.801078
 C        -2.492913         0.192814         1.585477
 C        -3.122598        -0.334950         0.329648
 C        -1.943284        -1.105535         0.951094
 C        -0.567939        -1.221912         0.450169
 C        -0.224946         0.016505        -0.466807
 O         0.302817         0.080912        -1.525661
 O        -0.676582         1.194631         0.159664
 C        -1.338446         1.248831         1.437893
 H        -3.744631         0.859973         3.260295
 H        -4.219440        -0.568256         2.634526
 H        -2.971840        -0.416204         3.697995
 H        -4.101604        -0.888135         0.382944
 H        -2.725389         0.097883        -0.586856
 H        -2.362630        -1.900276         1.549456
 H         0.121224        -1.379697         1.352176
 H        -0.329612        -2.030966        -0.276492
 H        -0.540609         1.242332         2.175477
 H        -1.768512         2.259406         1.483011
