19
Iteration:  3666
 C        -3.271465         0.190747         2.914392
 C        -2.404026        -0.000614         1.608790
 C        -3.166340        -0.176820         0.297180
 C        -2.065267        -1.146688         0.829213
 C        -0.600056        -1.335736         0.211811
 C        -0.172832        -0.065006        -0.378970
 O         0.313611         0.066089        -1.477734
 O        -0.553224         1.151599         0.306404
 C        -1.426673         1.262097         1.411048
 H        -3.656586        -0.690084         3.368691
 H        -2.838450         0.960441         3.629956
 H        -4.209157         0.735319         2.671547
 H        -4.136949        -0.536762         0.662771
 H        -3.186887         0.752575        -0.337961
 H        -2.432442        -2.115858         1.036065
 H         0.168566        -1.824717         0.942409
 H        -0.492370        -2.032559        -0.642634
 H        -0.855351         1.303958         2.330815
 H        -1.999174         2.256796         1.245545
