19
Iteration:  3514charge 0 multiplicity 1
 C        -3.052166         0.088268         2.825243
 C        -2.440648         0.144908         1.473507
 C        -3.254152        -0.419271         0.301521
 C        -2.156891        -1.267425         0.935322
 C        -0.847310        -1.179210         0.242831
 C        -0.293953         0.126546        -0.407429
 O         0.545835        -0.013714        -1.246115
 O        -0.638963         1.319680         0.138957
 C        -1.354736         1.272401         1.428447
 H        -3.842066         0.836898         2.987829
 H        -3.666843        -0.899999         2.914027
 H        -2.175523         0.181396         3.581220
 H        -4.257890        -0.914878         0.687868
 H        -3.195859        -0.240514        -0.755161
 H        -2.185470        -2.060409         1.692472
 H         0.067740        -1.483483         0.853788
 H        -0.868019        -1.884807        -0.608489
 H        -0.469145         1.156818         2.193745
 H        -1.877166         2.261201         1.461655
