19
Iteration:  1830charge 0 multiplicity 1
 C        -3.287787         0.197954         2.821181
 C        -2.329251         0.058870         1.613605
 C        -2.980355        -0.675588         0.384648
 C        -1.818186        -1.264214         1.084257
 C        -0.536183        -1.163873         0.376253
 C        -0.264161         0.126986        -0.374989
 O         0.477426         0.088971        -1.305129
 O        -0.998172         1.245183        -0.066689
 C        -1.591122         1.371578         1.219607
 H        -4.064490         0.948439         2.690021
 H        -3.725200        -0.774611         3.166591
 H        -2.693592         0.574616         3.710778
 H        -4.009625        -1.019494         0.732238
 H        -2.794399        -0.230524        -0.564877
 H        -1.968740        -2.137872         1.726038
 H         0.247803        -1.362475         1.083914
 H        -0.536983        -1.975197        -0.324824
 H        -0.833653         1.663812         1.981111
 H        -2.367616         2.182497         1.134852
