19
Iteration:  3330charge 0 multiplicity 1
 C        -3.154422         0.117507         2.790173
 C        -2.481675         0.163479         1.429608
 C        -3.107373        -0.562804         0.267562
 C        -1.947988        -1.215902         0.992188
 C        -0.605299        -1.186716         0.379201
 C        -0.180893         0.067423        -0.291515
 O         0.249425         0.079172        -1.455141
 O        -0.641386         1.288296         0.202674
 C        -1.505725         1.270493         1.408085
 H        -3.756623        -0.782452         2.838614
 H        -2.525020         0.149330         3.695531
 H        -3.873457         0.979370         2.918030
 H        -4.085296        -0.918506         0.496141
 H        -2.960291        -0.080909        -0.769370
 H        -2.196534        -2.093206         1.540822
 H         0.102531        -1.460351         1.220955
 H        -0.530288        -1.969835        -0.426794
 H        -0.872554         1.256066         2.387146
 H        -1.992058         2.239851         1.318863
