19
Iteration:  2783charge 0 multiplicity 1
 C        -3.148420         0.152339         2.811819
 C        -2.457935         0.063915         1.508712
 C        -3.256792        -0.872554         0.602391
 C        -1.798072        -1.216759         1.145362
 C        -0.703856        -1.104347         0.183965
 C        -0.323947         0.163131        -0.476871
 O         0.751962         0.182572        -1.065734
 O        -0.932658         1.355130        -0.204635
 C        -1.582164         1.279717         1.193887
 H        -3.578884         1.111949         2.853603
 H        -3.895853        -0.632593         2.856430
 H        -2.639994         0.166402         3.778260
 H        -4.118174        -1.309181         1.102981
 H        -3.495702        -0.858797        -0.493314
 H        -1.653257        -1.973145         1.966201
 H         0.306484        -1.239364         0.700187
 H        -0.737068        -1.919167        -0.495910
 H        -0.737295         1.257196         1.888133
 H        -2.063741         2.254542         1.419462
