19
Iteration:   142
 C        -3.468598         0.171484         2.808477
 C        -2.474147         0.136108         1.599788
 C        -3.054664        -0.335874         0.333547
 C        -1.903583        -1.195702         0.961093
 C        -0.541896        -1.261698         0.326798
 C        -0.246946         0.031248        -0.440343
 O         0.364780         0.077892        -1.493492
 O        -0.652185         1.222851         0.179713
 C        -1.403750         1.165263         1.468950
 H        -3.840818        -0.796906         3.262745
 H        -2.974102         0.702296         3.609106
 H        -4.340317         0.800546         2.587608
 H        -4.010084        -0.830624         0.395376
 H        -2.978646         0.257523        -0.572497
 H        -2.260801        -2.121765         1.382131
 H         0.303790        -1.437285         1.072976
 H        -0.485837        -2.126691        -0.356061
 H        -0.637893         1.062721         2.296096
 H        -1.811258         2.185309         1.526563
