19
Iteration:   745charge 0 multiplicity 1
 C        -2.851206         0.298267         2.941309
 C        -2.531992         0.129508         1.451249
 C        -3.383387        -0.862972         0.657667
 C        -1.926209        -1.284579         1.066061
 C        -0.905448        -1.285060        -0.079177
 C        -0.149184         0.097720        -0.357077
 O         0.842323         0.265836        -0.997362
 O        -0.627222         1.235536         0.226408
 C        -1.929008         1.356656         0.788139
 H        -3.978559         0.648222         3.058170
 H        -2.709981        -0.542456         3.712782
 H        -2.142965         1.134729         3.376372
 H        -4.264321        -1.332380         1.093888
 H        -3.424185        -0.685634        -0.382446
 H        -1.660041        -1.943235         1.826842
 H        -0.034182        -1.933547         0.233425
 H        -1.372543        -1.681971        -0.955430
 H        -1.857421         2.154494         1.588525
 H        -2.622962         1.805776         0.067586
