19
Iteration:   393charge 0 multiplicity 1
 C        -2.894040         0.111481         2.970490
 C        -2.516550         0.118822         1.433131
 C        -3.310012        -0.679114         0.388351
 C        -2.000896        -1.118622         0.972546
 C        -0.704223        -1.250876         0.174405
 C        -0.206633         0.047459        -0.270784
 O         0.713895         0.075213        -1.099986
 O        -0.781464         1.325036         0.016757
 C        -1.772337         1.390376         1.109015
 H        -2.389770        -0.812405         3.516742
 H        -2.606381         1.134878         3.253250
 H        -4.017524         0.071295         3.140712
 H        -4.136042        -1.204652         0.774749
 H        -3.299377        -0.282992        -0.646298
 H        -2.140417        -1.877399         1.777324
 H         0.069115        -1.724928         0.916556
 H        -0.714816        -2.009221        -0.647703
 H        -1.160782         1.698522         2.040970
 H        -2.422357         2.210522         0.768393
