19
Iteration:  4478
 C        -3.164620         0.227651         2.875261
 C        -2.446921         0.023542         1.511142
 C        -3.041666        -0.354898         0.162028
 C        -1.987984        -1.253820         0.873743
 C        -0.536328        -1.192250         0.436068
 C        -0.277707         0.065382        -0.328412
 O         0.232086         0.073167        -1.489716
 O        -0.691275         1.217899         0.239398
 C        -1.464182         1.146690         1.453334
 H        -3.272991         1.300583         3.345706
 H        -4.231302        -0.130068         2.766426
 H        -2.778636        -0.519114         3.692712
 H        -4.090471        -0.632970         0.096919
 H        -2.589665         0.178654        -0.706415
 H        -2.423147        -2.161299         1.401815
 H         0.058796        -1.329937         1.299275
 H        -0.181719        -1.852975        -0.361678
 H        -0.778597         1.524757         2.225493
 H        -2.096930         2.049415         1.331891
