19
Iteration:  2297charge 0 multiplicity 1
 C        -3.183354         0.227050         2.853411
 C        -2.426555         0.153587         1.568219
 C        -3.041951        -0.721688         0.460446
 C        -1.809606        -1.285628         1.100036
 C        -0.533074        -1.228374         0.260630
 C        -0.289196         0.129977        -0.401376
 O         0.659854         0.186986        -1.139023
 O        -1.170498         1.208641        -0.141835
 C        -1.590512         1.337333         1.181941
 H        -3.367029         1.199659         3.273514
 H        -4.156335        -0.325141         2.851336
 H        -2.718722        -0.280614         3.701865
 H        -3.936728        -1.133119         0.736923
 H        -2.927309        -0.253888        -0.508656
 H        -2.023395        -2.136992         1.764814
 H         0.356204        -1.520451         0.867846
 H        -0.590726        -1.974407        -0.607495
 H        -0.597275         1.517257         1.762273
 H        -2.144724         2.271288         1.256153
