19
Iteration:  1600charge 0 multiplicity 1
 C        -3.297936         0.275162         2.797696
 C        -2.381217         0.099485         1.666411
 C        -2.997888        -0.648627         0.482722
 C        -1.846074        -1.235046         1.124401
 C        -0.535990        -1.272207         0.381577
 C        -0.247968         0.052388        -0.457849
 O         0.492250         0.191837        -1.383306
 O        -0.921887         1.194797         0.004120
 C        -1.600169         1.319650         1.168055
 H        -4.217499         0.773481         2.473884
 H        -3.597423        -0.749047         3.156549
 H        -2.847201         0.889908         3.636711
 H        -3.967293        -1.203229         0.581150
 H        -2.808175        -0.080813        -0.433050
 H        -1.980085        -2.155788         1.726934
 H         0.329199        -1.391925         1.224803
 H        -0.374171        -2.099862        -0.371111
 H        -1.061444         1.794552         2.076360
 H        -2.474670         1.984682         0.922390
