19
Iteration:   960
 C        -2.317967         0.352311         2.834318
 C        -2.520772         0.081694         1.276827
 C        -3.296652        -1.152809         1.020988
 C        -1.763315        -1.160448         0.867217
 C        -1.237009        -0.852536        -0.494643
 C        -0.282185         0.212808        -0.190247
 O         0.941398        -0.115058        -0.239191
 O        -0.773763         1.405217         0.199979
 C        -2.228293         1.199192         0.375056
 H        -2.765303         1.300837         3.105768
 H        -2.763250        -0.382212         3.489740
 H        -1.289230         0.534123         2.887273
 H        -3.730270        -1.593365         1.897464
 H        -3.882522        -1.044377         0.162723
 H        -1.086263        -1.615843         1.542209
 H        -0.813856        -1.769789        -0.982915
 H        -2.153695        -0.517241        -1.063403
 H        -2.601457         2.152510         0.882438
 H        -2.588205         1.163306        -0.638241
