19
Iteration:  3103charge 0 multiplicity 1
 C        -3.217897         0.138293         2.928015
 C        -2.463320         0.093289         1.569252
 C        -3.277054        -0.732081         0.526311
 C        -1.962700        -1.235630         1.007645
 C        -0.619268        -1.112270         0.368009
 C        -0.191157         0.175299        -0.443649
 O         0.721454         0.270176        -1.284000
 O        -0.928640         1.196799        -0.123927
 C        -1.485000         1.219373         1.172803
 H        -3.549607        -0.934538         3.315878
 H        -2.646178         0.506541         3.809953
 H        -4.059455         0.808254         2.751792
 H        -4.107261        -1.378079         0.967887
 H        -3.440548        -0.328833        -0.464984
 H        -1.986808        -2.096246         1.647362
 H         0.058084        -1.326461         1.130532
 H        -0.333603        -1.890572        -0.391544
 H        -0.678928         1.433578         1.881308
 H        -2.101561         2.223679         1.215241
