19
Iteration:  4688
 C        -3.040802         0.225960         3.018516
 C        -2.534556         0.015674         1.575912
 C        -3.263616        -0.358132         0.308558
 C        -2.107655        -1.202363         0.803994
 C        -0.652880        -1.266638         0.323824
 C        -0.233754         0.049440        -0.362385
 O         0.601152         0.185931        -1.305588
 O        -0.746014         1.193666         0.039960
 C        -1.470636         1.130448         1.316597
 H        -3.342338         1.321325         3.155468
 H        -3.866015        -0.539170         3.078720
 H        -2.230057        -0.194556         3.704966
 H        -4.266660        -0.763526         0.456999
 H        -3.193204         0.305846        -0.536862
 H        -2.595876        -2.154665         1.071036
 H         0.087811        -1.290747         1.121678
 H        -0.415926        -2.064398        -0.367998
 H        -0.876251         1.122134         2.213187
 H        -2.093953         2.088727         1.415903
