19
Iteration:  1966
 C        -3.282589         0.212885         2.883279
 C        -2.487331         0.079020         1.551534
 C        -3.188059        -0.757653         0.603179
 C        -1.884392        -1.265321         1.123587
 C        -0.605605        -1.120085         0.233688
 C        -0.119178         0.163614        -0.374317
 O         0.689506         0.244045        -1.283795
 O        -1.017441         1.171971        -0.167037
 C        -1.474565         1.257450         1.195148
 H        -4.178712         0.900542         2.546264
 H        -3.688289        -0.778953         3.161070
 H        -2.821079         0.780136         3.723358
 H        -4.140724        -1.094066         1.102836
 H        -3.203217        -0.521484        -0.446763
 H        -1.824265        -1.777797         2.142237
 H         0.320661        -1.557542         0.810956
 H        -0.867861        -1.714903        -0.685327
 H        -0.619989         1.079596         1.898585
 H        -1.987171         2.229046         1.246087
