19
Iteration:  4926charge 0 multiplicity 1
 C        -3.118052         0.207789         2.786837
 C        -2.536723         0.158433         1.458507
 C        -3.207595        -0.522723         0.265234
 C        -2.054816        -1.292105         0.997892
 C        -0.709120        -1.236300         0.314511
 C        -0.267328         0.050621        -0.373595
 O         0.380802         0.128690        -1.386982
 O        -0.596867         1.350248         0.216713
 C        -1.348713         1.155473         1.390033
 H        -3.947429         1.039052         3.015944
 H        -3.713647        -0.702987         3.057733
 H        -2.438081         0.288055         3.691002
 H        -4.175343        -0.976328         0.437491
 H        -2.986230        -0.048412        -0.644689
 H        -2.397471        -2.166179         1.465836
 H        -0.004538        -1.295475         1.179211
 H        -0.543128        -2.107949        -0.305885
 H        -0.605291         0.866225         2.089494
 H        -1.584560         2.230369         1.548207
