19
Iteration:  4225charge 0 multiplicity 1
 C        -3.189924         0.186479         2.894568
 C        -2.507127         0.076927         1.509139
 C        -3.371946        -0.397217         0.431193
 C        -2.193997        -1.274592         0.912232
 C        -0.758812        -1.213728         0.196549
 C        -0.163179         0.058609        -0.467412
 O         0.664394         0.209257        -1.314957
 O        -0.592973         1.275003         0.142617
 C        -1.388912         1.036297         1.388310
 H        -3.120534        -0.834560         3.323585
 H        -2.604684         0.826241         3.525685
 H        -4.201472         0.550936         2.670436
 H        -4.365932        -0.775585         0.778120
 H        -3.412080         0.364550        -0.439277
 H        -2.606030        -2.202955         1.255611
 H         0.027377        -1.363667         1.024809
 H        -0.484465        -2.040069        -0.538122
 H        -0.646145         0.929402         2.209874
 H        -1.594341         2.164464         1.456711
