19
Iteration:  1445charge 0 multiplicity 1
 C        -3.247328         0.217793         2.836763
 C        -2.431570         0.127533         1.532816
 C        -3.113589        -0.764527         0.478056
 C        -1.918368        -1.243543         1.116451
 C        -0.601205        -1.247924         0.414238
 C        -0.183796         0.182874        -0.392357
 O         0.526244         0.044806        -1.337189
 O        -0.881847         1.348473        -0.120484
 C        -1.547344         1.392871         1.271973
 H        -4.187402         0.733300         2.504761
 H        -3.426083        -0.799719         3.245736
 H        -2.753243         0.728253         3.700619
 H        -3.975789        -1.315340         0.732274
 H        -3.034960        -0.730873        -0.605980
 H        -1.975594        -2.055691         1.849499
 H         0.234522        -1.616708         0.947390
 H        -0.805876        -1.860787        -0.496850
 H        -0.604887         1.316870         1.978771
 H        -2.024488         2.372155         1.253076
