19
Iteration:  4346
 C        -3.115302         0.187192         2.963559
 C        -2.537327         0.089197         1.520497
 C        -3.235497        -0.491547         0.246225
 C        -2.112497        -1.188905         0.810800
 C        -0.714008        -1.198817         0.289195
 C        -0.249801         0.070323        -0.366442
 O         0.534455         0.173759        -1.305457
 O        -0.703778         1.222044         0.140165
 C        -1.358677         1.124333         1.398116
 H        -4.166788         0.363948         2.936614
 H        -2.769041        -0.720340         3.349512
 H        -2.592167         1.059415         3.326974
 H        -4.289503        -0.892540         0.336373
 H        -2.955116         0.099394        -0.666889
 H        -2.474373        -1.998700         1.461866
 H        -0.016902        -1.350637         1.090375
 H        -0.462109        -2.032315        -0.394911
 H        -0.539289         1.001587         2.172378
 H        -1.909988         2.075032         1.574615
