19
Iteration:  1813
 C        -3.307537         0.332388         2.748557
 C        -2.380251         0.038007         1.649700
 C        -2.931304        -0.555712         0.385635
 C        -1.774787        -1.264733         1.241367
 C        -0.486222        -1.275760         0.378787
 C        -0.311993         0.039785        -0.478616
 O         0.463050         0.234744        -1.380251
 O        -1.027291         1.178530        -0.042005
 C        -1.599719         1.245767         1.342903
 H        -4.069510         0.898168         2.168751
 H        -3.731163        -0.630434         3.000221
 H        -3.001045         0.783044         3.666498
 H        -3.895436        -0.994523         0.435272
 H        -2.567474        -0.340042        -0.646147
 H        -2.085552        -2.193165         1.793583
 H         0.544610        -1.330328         0.939490
 H        -0.369037        -2.115107        -0.364571
 H        -0.778427         1.550367         2.000977
 H        -2.284547         2.081287         1.429201
