19
Iteration:  3207
 C        -3.216790         0.019588         2.941365
 C        -2.559730         0.118355         1.557802
 C        -3.300102        -0.655979         0.451008
 C        -1.972671        -1.155690         0.942158
 C        -0.545716        -1.035095         0.380697
 C        -0.142089         0.125575        -0.419018
 O         0.569367         0.053041        -1.373579
 O        -0.730637         1.312967         0.038265
 C        -1.541905         1.260621         1.211411
 H        -2.999623         0.828366         3.557310
 H        -4.305702         0.046670         2.818650
 H        -2.903182        -0.810220         3.590532
 H        -4.135664        -1.304487         0.745208
 H        -3.534688        -0.240084        -0.535065
 H        -1.896238        -2.138152         1.480941
 H         0.270558        -1.197606         1.166807
 H        -0.444459        -1.753342        -0.401123
 H        -0.782959         1.470629         2.012616
 H        -2.096744         2.156010         1.025222
