19
Iteration:  2182charge 0 multiplicity 1
 C        -3.308592         0.108313         2.732313
 C        -2.548441         0.126732         1.443785
 C        -2.992266        -0.735121         0.330613
 C        -1.731026        -1.131456         1.187383
 C        -0.508946        -1.107993         0.425244
 C        -0.240938         0.060912        -0.359775
 O         0.204145         0.050036        -1.491425
 O        -0.676579         1.300857         0.148119
 C        -1.601549         1.354931         1.327922
 H        -4.389568         0.248277         2.549124
 H        -3.090705        -0.833912         3.228285
 H        -2.944292         0.923837         3.373224
 H        -3.777611        -1.334744         0.672107
 H        -2.781443        -0.484658        -0.761017
 H        -1.837294        -2.033173         1.793457
 H         0.418220        -1.140126         1.216872
 H        -0.462840        -1.931501        -0.248628
 H        -0.969741         1.548595         2.247588
 H        -2.192004         2.347705         1.254069
