19
Iteration:  2238
 C        -3.133189         0.199558         2.922751
 C        -2.470656         0.026265         1.543049
 C        -3.175419        -0.663439         0.410378
 C        -1.862949        -1.198367         0.930484
 C        -0.416174        -1.131180         0.464297
 C        -0.216191         0.098557        -0.395282
 O         0.468165         0.086589        -1.422708
 O        -0.771116         1.250159         0.095355
 C        -1.809065         1.308138         1.197817
 H        -4.054676         0.819799         2.681065
 H        -3.545740        -0.719468         3.312443
 H        -2.486058         0.722885         3.614680
 H        -4.111039        -1.276658         0.531001
 H        -3.252677        -0.224970        -0.615857
 H        -1.872853        -1.981247         1.664505
 H         0.348305        -1.196465         1.360107
 H        -0.110248        -1.906871        -0.269087
 H        -1.146244         1.711007         2.044316
 H        -2.676443         2.025187         0.915382
