19
Iteration:  2014charge 0 multiplicity 1
 C        -3.120278         0.319462         2.889125
 C        -2.460357         0.038979         1.526139
 C        -3.127083        -0.672336         0.331874
 C        -1.874077        -1.264728         1.151454
 C        -0.495048        -1.214759         0.335279
 C        -0.288328         0.106545        -0.416724
 O         0.534029         0.222246        -1.302972
 O        -0.919599         1.172503         0.032120
 C        -1.688600         1.296583         1.194273
 H        -4.033309         0.879130         2.953408
 H        -3.136695        -0.718984         3.301418
 H        -2.398295         0.844407         3.554534
 H        -4.062609        -1.169452         0.448079
 H        -2.715230        -0.528172        -0.702205
 H        -2.027191        -2.185234         1.680655
 H         0.211402        -1.216250         1.257877
 H        -0.302908        -2.058217        -0.416383
 H        -1.056727         1.488110         2.052461
 H        -2.430635         2.072122         0.951523
