19
Iteration:  2458charge 0 multiplicity 1
 C        -3.268837         0.309803         2.770278
 C        -2.494757         0.016866         1.490236
 C        -3.052808        -0.892441         0.483633
 C        -1.819159        -1.333717         1.184894
 C        -0.618502        -1.132271         0.305414
 C        -0.328931         0.136693        -0.392956
 O         0.434483         0.213043        -1.326809
 O        -0.773552         1.337294         0.009752
 C        -1.493842         1.282719         1.202865
 H        -3.803238         1.309469         2.553562
 H        -3.924359        -0.540331         3.074088
 H        -2.586566         0.504816         3.596404
 H        -3.958205        -1.237295         0.812844
 H        -3.026831        -0.543734        -0.525839
 H        -1.848003        -2.256387         1.785521
 H         0.150842        -1.211591         1.080142
 H        -0.428971        -1.962309        -0.348660
 H        -0.831951         1.321915         2.083713
 H        -2.158172         2.199669         1.310487
