19
Iteration:     9
 C        -3.240522         0.196290         2.809356
 C        -2.463694         0.138263         1.529565
 C        -3.040668        -0.382093         0.253811
 C        -2.007025        -1.230581         0.915333
 C        -0.584762        -1.302660         0.335226
 C        -0.284170         0.090141        -0.380676
 O         0.435105         0.011055        -1.373075
 O        -0.776565         1.261065         0.196205
 C        -1.413493         1.252416         1.463597
 H        -3.956233        -0.716690         2.739596
 H        -2.584922        -0.048049         3.574177
 H        -3.762801         1.081635         3.042600
 H        -4.104432        -0.819468         0.347234
 H        -2.909592         0.093644        -0.707823
 H        -2.274087        -2.133620         1.304713
 H         0.249398        -1.388107         1.086364
 H        -0.660299        -2.067493        -0.513320
 H        -0.785442         1.437948         2.296978
 H        -2.095549         2.102578         1.434391
