19
Iteration:  3920charge 0 multiplicity 1
 C        -3.273041        -0.004417         2.826369
 C        -2.386650         0.213364         1.597316
 C        -3.329223        -0.352941         0.483795
 C        -2.081638        -1.082206         0.907543
 C        -0.805656        -1.199575         0.195251
 C        -0.189162         0.079838        -0.427639
 O         0.635503        -0.046506        -1.318516
 O        -0.696952         1.280174         0.038214
 C        -1.284609         1.201152         1.413702
 H        -3.479333        -1.107320         2.997754
 H        -2.794081         0.496587         3.665359
 H        -4.212424         0.563233         2.879217
 H        -4.289089        -0.678299         0.742235
 H        -3.236273         0.224893        -0.475841
 H        -2.153689        -2.047210         1.485788
 H        -0.201509        -1.608263         0.938437
 H        -0.886066        -1.919551        -0.659741
 H        -0.499196         1.017020         2.143584
 H        -1.815765         2.098230         1.694314
