19
Iteration:  1567charge 0 multiplicity 1
 C        -3.132159         0.041686         2.898249
 C        -2.583133         0.152548         1.526229
 C        -3.198703        -0.725382         0.426997
 C        -1.883547        -1.068689         1.147857
 C        -0.538892        -1.115216         0.450064
 C        -0.220212         0.110552        -0.404317
 O         0.555134        -0.027655        -1.338368
 O        -0.781203         1.362285        -0.073129
 C        -1.671530         1.343114         1.106894
 H        -3.888458         0.800727         3.147490
 H        -3.516625        -0.984238         3.038407
 H        -2.253277         0.128650         3.633587
 H        -3.998815        -1.480659         0.614440
 H        -3.131603        -0.248418        -0.527278
 H        -1.902119        -1.947741         1.824113
 H         0.176034        -1.385758         1.324776
 H        -0.493003        -1.968789        -0.291988
 H        -1.054733         1.706467         2.031332
 H        -2.343175         2.205875         0.844151
