19
Iteration:   440
 C        -3.304803         0.291760         2.912515
 C        -2.465908         0.024703         1.656017
 C        -3.122934        -0.545928         0.400818
 C        -1.852296        -1.221164         1.007731
 C        -0.538457        -1.234761         0.296883
 C        -0.188937         0.089886        -0.463351
 O         0.591181         0.153240        -1.357416
 O        -0.908969         1.201913         0.005378
 C        -1.581675         1.210072         1.323146
 H        -4.056431        -0.480536         2.871225
 H        -2.866202         0.550266         3.952931
 H        -3.954316         1.250373         2.683891
 H        -4.072876        -1.096158         0.546215
 H        -2.994885        -0.012274        -0.502114
 H        -2.052055        -2.162070         1.563418
 H         0.341029        -1.513760         0.980506
 H        -0.548647        -2.021366        -0.449956
 H        -0.705481         1.292722         2.048164
 H        -2.103469         2.171296         1.217992
