19
Iteration:   761
 C        -2.911217         0.318147         2.905018
 C        -2.564650         0.121984         1.422015
 C        -3.292457        -1.005876         0.779394
 C        -1.876417        -1.165451         1.093032
 C        -1.001957        -1.177789        -0.183028
 C        -0.159692         0.132849        -0.395160
 O         0.864964         0.179954        -0.999222
 O        -0.524986         1.243017         0.357295
 C        -2.004655         1.353660         0.742771
 H        -3.820733         0.775435         3.046966
 H        -2.842774        -0.677542         3.272796
 H        -2.152304         0.839755         3.428275
 H        -4.109277        -1.444181         1.390090
 H        -3.559624        -0.949312        -0.324917
 H        -1.602033        -1.739503         2.061752
 H        -0.304994        -2.000069        -0.121998
 H        -1.660529        -1.316941        -1.105612
 H        -1.950831         2.203611         1.382543
 H        -2.442220         1.652164        -0.217435
