19
Iteration:  4229
 C        -3.163611         0.161572         2.916770
 C        -2.463910         0.080855         1.473580
 C        -3.375659        -0.397643         0.427199
 C        -2.217365        -1.285976         0.906331
 C        -0.762756        -1.219688         0.188369
 C        -0.173950         0.060728        -0.460204
 O         0.684940         0.194812        -1.323959
 O        -0.610794         1.285174         0.147366
 C        -1.405716         1.100759         1.404455
 H        -3.271177        -0.826740         3.392495
 H        -2.696686         0.917878         3.622065
 H        -4.175479         0.603877         2.748173
 H        -4.351196        -0.812322         0.690877
 H        -3.288140         0.287822        -0.450600
 H        -2.565594        -2.325243         1.217166
 H        -0.029386        -1.391288         1.048716
 H        -0.551066        -2.066035        -0.468161
 H        -0.661599         0.822368         2.175112
 H        -1.591478         2.144640         1.455351
