19
Iteration:  3319
 C        -3.253514         0.109090         2.776384
 C        -2.521374         0.112394         1.482335
 C        -3.194033        -0.567084         0.297458
 C        -2.014534        -1.200225         1.059234
 C        -0.561034        -1.166653         0.425814
 C        -0.234449         0.124129        -0.411558
 O         0.328414         0.109402        -1.485189
 O        -0.556276         1.269875         0.150489
 C        -1.455905         1.271371         1.435581
 H        -3.951620        -0.720338         2.724991
 H        -2.456642        -0.300621         3.367599
 H        -3.793633         0.987418         3.231177
 H        -4.135383        -1.019673         0.513155
 H        -3.101681        -0.318304        -0.828817
 H        -2.160606        -1.981138         1.761710
 H         0.218122        -1.300035         1.258860
 H        -0.365369        -2.029779        -0.280368
 H        -0.638641         1.209108         2.260104
 H        -1.912422         2.253264         1.445031
