19
Iteration:  3392charge 0 multiplicity 1
 C        -3.330265         0.125008         2.869126
 C        -2.495594         0.121634         1.524635
 C        -3.204391        -0.447097         0.310453
 C        -1.953865        -1.145750         0.977628
 C        -0.562040        -1.197213         0.359979
 C        -0.232399         0.021218        -0.413085
 O         0.378829         0.121560        -1.460824
 O        -0.654105         1.223828         0.093529
 C        -1.355866         1.191025         1.485422
 H        -2.964811        -0.482424         3.673099
 H        -3.334392         1.169072         3.310012
 H        -4.299279        -0.323703         2.553974
 H        -4.122999        -0.931284         0.519563
 H        -3.224215         0.181120        -0.615027
 H        -2.108079        -2.103110         1.444813
 H         0.280425        -1.275001         1.029548
 H        -0.463116        -2.017455        -0.283837
 H        -0.694500         1.069835         2.345848
 H        -1.810964         2.199932         1.410033
