19
Iteration:  1139
 C        -3.219964         0.354987         2.889975
 C        -2.516566         0.144887         1.575246
 C        -3.189194        -0.900562         0.692428
 C        -1.844529        -1.192693         1.107652
 C        -0.757142        -1.181401         0.041418
 C        -0.182652         0.108563        -0.419947
 O         0.601488         0.224648        -1.311587
 O        -0.472888         1.147248         0.362836
 C        -1.813880         1.317109         0.840409
 H        -3.798727         1.255614         2.791731
 H        -3.936000        -0.425561         3.038886
 H        -2.641820         0.386268         3.781735
 H        -3.932883        -1.446434         1.329994
 H        -3.563325        -0.928204        -0.360029
 H        -1.629783        -1.891289         1.937581
 H         0.162692        -1.846753         0.276885
 H        -1.122201        -1.741010        -0.908855
 H        -1.674411         2.164750         1.505772
 H        -2.374903         1.752552        -0.038143
