19
Iteration:  2928
 C        -3.312185         0.252481         2.778599
 C        -2.441064         0.000654         1.594132
 C        -2.866728        -0.673382         0.304496
 C        -1.772823        -1.308985         1.117917
 C        -0.361532        -1.077074         0.557630
 C        -0.284927         0.128778        -0.380253
 O         0.270168         0.161377        -1.436963
 O        -0.992443         1.287649        -0.013540
 C        -1.584414         1.165520         1.259305
 H        -3.422875         1.381577         2.732953
 H        -4.277720        -0.238541         2.663040
 H        -2.951161        -0.069790         3.731865
 H        -3.949000        -0.902048         0.313982
 H        -2.582632        -0.297296        -0.660250
 H        -1.926116        -2.105776         1.830919
 H         0.381940        -1.081025         1.417171
 H        -0.005265        -2.003869         0.020893
 H        -0.768433         1.172867         1.973034
 H        -2.231355         2.140628         1.283080
