19
Iteration:  4580
 C        -3.142633         0.377518         2.901189
 C        -2.515409         0.009892         1.592281
 C        -3.244624        -0.400915         0.329979
 C        -2.020246        -1.293161         0.831258
 C        -0.608539        -1.302513         0.222357
 C        -0.122217         0.036414        -0.381627
 O         0.473703         0.243454        -1.403453
 O        -0.746005         1.156453         0.190600
 C        -1.486924         1.112516         1.420573
 H        -4.060457         1.030943         2.920278
 H        -3.462689        -0.562826         3.453657
 H        -2.461758         0.867933         3.680974
 H        -4.178195        -0.969011         0.479529
 H        -3.065682         0.242406        -0.494568
 H        -2.336844        -2.074084         1.458795
 H         0.090060        -1.706649         0.932073
 H        -0.563340        -1.935970        -0.667232
 H        -0.737380         1.136202         2.246524
 H        -1.939266         2.130697         1.287614
