19
Iteration:   980
 C        -2.426989         0.376718         2.850756
 C        -2.508222         0.156756         1.410266
 C        -3.335008        -1.187816         1.037266
 C        -1.867076        -1.145836         0.899316
 C        -1.191213        -1.004626        -0.587404
 C        -0.218958         0.175175        -0.321187
 O         1.034039         0.021294        -0.337830
 O        -0.749253         1.296436         0.252359
 C        -2.232787         1.341380         0.434625
 H        -2.809191         1.396037         3.089505
 H        -3.194194        -0.248550         3.378909
 H        -1.385708         0.188609         3.271394
 H        -3.680254        -1.681182         1.965495
 H        -3.868769        -1.430609         0.154518
 H        -1.172910        -1.701620         1.565479
 H        -0.771762        -1.948672        -0.765794
 H        -1.908558        -0.755174        -1.354357
 H        -2.360116         2.347506         0.761302
 H        -2.784711         1.248127        -0.455731
