19
Iteration:  3926charge 0 multiplicity 1
 C        -3.302746        -0.005114         2.930594
 C        -2.399047         0.198252         1.583399
 C        -3.306042        -0.342525         0.452555
 C        -2.089211        -1.095795         0.863010
 C        -0.785052        -1.156103         0.146957
 C        -0.118905         0.012694        -0.377246
 O         0.597371        -0.023178        -1.319881
 O        -0.700359         1.240211         0.038933
 C        -1.305674         1.208798         1.405279
 H        -3.470074        -1.056964         2.855935
 H        -2.795818         0.541623         3.774697
 H        -4.244048         0.571041         2.765973
 H        -4.320837        -0.677480         0.868338
 H        -3.456386         0.335226        -0.360016
 H        -2.298953        -1.929369         1.554607
 H         0.075845        -1.523201         0.898661
 H        -0.763570        -1.924784        -0.618802
 H        -0.506531         1.069539         2.178433
 H        -1.643688         2.314899         1.405705
