19
Iteration:  1143charge 0 multiplicity 1
 C        -3.221944         0.359494         2.896423
 C        -2.535573         0.179928         1.554780
 C        -3.208738        -0.950086         0.667835
 C        -1.814498        -1.184012         1.131395
 C        -0.755411        -1.191379         0.041175
 C        -0.192948         0.087114        -0.435174
 O         0.594255         0.242267        -1.298685
 O        -0.444794         1.138101         0.346638
 C        -1.814535         1.348333         0.840943
 H        -3.830573         1.276809         2.979496
 H        -3.948554        -0.473068         3.000186
 H        -2.569551         0.312159         3.814814
 H        -3.880548        -1.476338         1.280546
 H        -3.553995        -0.956704        -0.373117
 H        -1.699464        -1.959407         1.875734
 H         0.027893        -1.797243         0.395009
 H        -1.150020        -1.729887        -0.792411
 H        -1.564603         2.121340         1.570494
 H        -2.438114         1.845639         0.012274
