19
Iteration:  4798
 C        -3.213937         0.210996         2.894602
 C        -2.417239         0.082800         1.467012
 C        -3.113032        -0.468145         0.254045
 C        -2.109521        -1.305291         0.925202
 C        -0.658614        -1.271582         0.347609
 C        -0.289389         0.065806        -0.386200
 O         0.334380         0.139862        -1.480856
 O        -0.555613         1.281859         0.271428
 C        -1.406849         1.228307         1.425222
 H        -3.783335         1.122848         2.889992
 H        -4.025732        -0.524112         3.042988
 H        -2.601357         0.309795         3.796855
 H        -4.083075        -0.833710         0.436959
 H        -2.963298        -0.124723        -0.745086
 H        -2.355916        -2.221127         1.377884
 H         0.112048        -1.358467         1.139872
 H        -0.489382        -2.062635        -0.405983
 H        -0.701687         1.218005         2.318492
 H        -1.824305         2.250111         1.254514
