19
Iteration:   764
 C        -2.908850         0.315831         2.893436
 C        -2.555772         0.142264         1.416107
 C        -3.311383        -1.031611         0.792333
 C        -1.861782        -1.150131         1.096838
 C        -0.991161        -1.142800        -0.205911
 C        -0.153287         0.138992        -0.383128
 O         0.863357         0.158718        -1.003350
 O        -0.530716         1.233258         0.372761
 C        -2.000448         1.347241         0.734725
 H        -3.895372         0.810923         3.014292
 H        -2.899311        -0.679373         3.335028
 H        -2.124110         0.761023         3.470535
 H        -4.025206        -1.477469         1.409753
 H        -3.579901        -0.968324        -0.251752
 H        -1.621732        -1.772736         1.991316
 H        -0.322096        -1.995660        -0.152728
 H        -1.731180        -1.253657        -1.047775
 H        -2.040731         2.277713         1.365865
 H        -2.427196         1.629401        -0.268014
