19
Iteration:   920
 C        -2.155509         0.419030         2.848618
 C        -2.488261         0.004954         1.494886
 C        -3.426982        -0.951108         0.951928
 C        -1.971328        -1.210352         0.699466
 C        -1.111259        -1.091554        -0.604987
 C        -0.228453         0.123694        -0.265126
 O         1.001991         0.137078        -0.047435
 O        -0.891567         1.275684         0.050312
 C        -2.225875         1.214178         0.504403
 H        -3.042918         0.913682         3.328135
 H        -1.684936        -0.303710         3.527910
 H        -1.433956         1.273210         2.827074
 H        -3.886043        -1.526898         1.717610
 H        -4.194037        -0.668761         0.173456
 H        -1.596721        -1.872971         1.424098
 H        -0.494146        -2.032077        -0.896126
 H        -1.664395        -0.796659        -1.546684
 H        -2.194515         2.199803         1.086681
 H        -3.033347         1.138287        -0.308353
