19
Iteration:  2582
 C        -3.201112         0.112660         2.753665
 C        -2.495694         0.208075         1.417705
 C        -3.013915        -0.812118         0.272288
 C        -1.903984        -1.187227         1.189126
 C        -0.543224        -1.103010         0.602307
 C        -0.237067         0.146764        -0.379650
 O         0.220659         0.093712        -1.498398
 O        -0.762794         1.325670         0.045472
 C        -1.477614         1.261677         1.324930
 H        -4.061412         0.808710         2.781689
 H        -3.745642        -0.884917         2.865572
 H        -2.485467         0.147052         3.662518
 H        -4.069614        -1.040064         0.267815
 H        -2.574147        -0.636983        -0.814246
 H        -2.101612        -1.879732         2.020082
 H         0.237503        -0.973256         1.424209
 H        -0.224966        -2.033844         0.026443
 H        -0.765778         1.050298         2.166287
 H        -1.834589         2.255702         1.557911
