19
Iteration:  2510charge 0 multiplicity 1
 C        -3.396378         0.181224         2.874575
 C        -2.486548         0.093336         1.619221
 C        -2.935038        -0.539514         0.286571
 C        -1.776663        -1.167148         1.075914
 C        -0.279344        -1.115281         0.548521
 C        -0.314363         0.022893        -0.424448
 O         0.197771         0.109983        -1.498204
 O        -0.816052         1.155589         0.014431
 C        -1.537036         1.256147         1.269195
 H        -4.141856         1.039154         2.757853
 H        -4.061223        -0.709022         2.807992
 H        -2.997322         0.143742         3.906790
 H        -3.828943        -1.124982         0.221568
 H        -2.576938        -0.043112        -0.690297
 H        -2.086704        -2.010405         1.675233
 H         0.315696        -0.919366         1.427999
 H         0.104968        -1.995098         0.097107
 H        -0.809209         1.400114         2.117237
 H        -2.089988         2.224202         1.302113
