19
Iteration:  3542
 C        -3.072891         0.211282         2.974836
 C        -2.505520         0.082903         1.542424
 C        -3.287225        -0.314833         0.297531
 C        -2.117731        -1.210056         0.839095
 C        -0.705278        -1.332159         0.180233
 C        -0.186943         0.040344        -0.333399
 O         0.561921         0.115516        -1.306134
 O        -0.724147         1.198162         0.137830
 C        -1.441185         1.196925         1.387483
 H        -4.040756         0.707886         2.803049
 H        -3.224587        -0.687038         3.543681
 H        -2.543475         0.952013         3.518085
 H        -4.165771        -0.826857         0.474612
 H        -3.091943         0.232136        -0.635653
 H        -2.244970        -2.105920         1.458871
 H         0.078000        -1.689830         0.855434
 H        -0.732473        -1.961685        -0.702544
 H        -0.640558         1.049005         2.069988
 H        -1.756912         2.254114         1.536350
