19
Iteration:  1904charge 0 multiplicity 1
 C        -2.937152         0.165536         2.954059
 C        -2.444390         0.045168         1.515041
 C        -3.179306        -0.579539         0.339214
 C        -1.928503        -1.315678         0.977824
 C        -0.545301        -1.176003         0.483303
 C        -0.181820         0.163337        -0.310174
 O         0.569647         0.092748        -1.232812
 O        -0.924083         1.297074        -0.069692
 C        -1.820637         1.294084         1.058659
 H        -3.268567         1.177265         3.066027
 H        -3.727430        -0.498983         3.300164
 H        -2.129996         0.004248         3.678687
 H        -3.878642        -1.364910         0.756747
 H        -3.252866        -0.104528        -0.611365
 H        -2.128170        -2.072099         1.710806
 H         0.140748        -1.431527         1.326409
 H        -0.255171        -1.894953        -0.332386
 H        -1.502630         1.885509         1.924666
 H        -2.642188         1.938646         0.686524
