19
Iteration:  1062charge 0 multiplicity 1
 C        -2.611042         0.208827         2.886331
 C        -2.595169         0.165202         1.418496
 C        -3.432053        -0.867219         0.725310
 C        -1.962516        -1.161707         0.966605
 C        -0.803649        -1.206658         0.053657
 C        -0.132427         0.125262        -0.347745
 O         0.861635         0.178867        -0.995957
 O        -0.699067         1.231415         0.394908
 C        -2.130670         1.372851         0.585883
 H        -3.478805         0.670596         3.290859
 H        -2.406073        -0.761839         3.278941
 H        -1.787243         0.781322         3.240212
 H        -4.127755        -1.464193         1.451402
 H        -3.954266        -0.670023        -0.223081
 H        -1.608637        -1.757450         1.875305
 H        -0.094516        -1.984562         0.535826
 H        -1.025258        -1.766839        -0.941946
 H        -2.172825         2.421153         1.010050
 H        -2.684031         1.373240        -0.454285
