19
Iteration:  2922charge 0 multiplicity 1
 C        -3.328153         0.240251         2.794245
 C        -2.424554         0.025181         1.577695
 C        -2.935347        -0.693856         0.312905
 C        -1.793747        -1.294127         1.116454
 C        -0.396609        -1.008339         0.575376
 C        -0.243673         0.172109        -0.379909
 O         0.289887         0.143896        -1.458882
 O        -0.942359         1.212341        -0.029837
 C        -1.607001         1.176346         1.278338
 H        -3.514466         1.300059         2.973714
 H        -4.246822        -0.364701         2.625984
 H        -2.743331        -0.073437         3.714034
 H        -3.957035        -1.010424         0.327776
 H        -2.629275        -0.329122        -0.722257
 H        -1.854609        -2.256851         1.662918
 H         0.294851        -0.806629         1.395269
 H        -0.081026        -1.893074         0.011641
 H        -0.766127         1.271270         2.028680
 H        -2.086701         2.088481         1.379829
