19
Iteration:  3961
 C        -3.043312         0.174443         2.939399
 C        -2.500906         0.062009         1.560704
 C        -3.130586        -0.251926         0.237603
 C        -2.134605        -1.175492         0.904132
 C        -0.795403        -1.322256         0.194838
 C        -0.194478        -0.027762        -0.420715
 O         0.567103         0.135162        -1.326901
 O        -0.691838         1.164305         0.173008
 C        -1.528131         1.200797         1.403522
 H        -3.564582        -0.698799         3.384841
 H        -2.286042         0.181175         3.764697
 H        -3.791970         0.969342         3.012948
 H        -4.178135        -0.436797         0.300533
 H        -2.825269         0.484351        -0.522386
 H        -2.492166        -2.062243         1.553279
 H         0.070946        -1.457703         0.930273
 H        -0.737667        -2.193224        -0.516516
 H        -0.914668         1.335417         2.322699
 H        -2.112132         2.201772         1.281615
