19
Iteration:  3781
 C        -3.258370         0.152684         2.909160
 C        -2.412385         0.149915         1.566949
 C        -3.071604        -0.231265         0.206801
 C        -2.067992        -1.188340         0.905921
 C        -0.624059        -1.302905         0.321424
 C        -0.277505        -0.049443        -0.390955
 O         0.348140         0.095800        -1.431789
 O        -0.694361         1.155517         0.183760
 C        -1.359890         1.228622         1.480674
 H        -4.148866        -0.463924         2.713383
 H        -2.626406        -0.255663         3.696537
 H        -3.470568         1.195914         3.201687
 H        -4.151229        -0.522115         0.268558
 H        -2.602524         0.064706        -0.713694
 H        -2.614884        -2.007247         1.362383
 H         0.166824        -1.560685         1.102707
 H        -0.559169        -2.046409        -0.492959
 H        -0.482832         1.321021         2.199535
 H        -1.872259         2.176897         1.517369
