19
Iteration:  1702charge 0 multiplicity 1
 C        -3.245469         0.087817         2.903735
 C        -2.517622         0.170502         1.548284
 C        -2.925804        -0.522778         0.249234
 C        -1.780655        -1.089320         1.059676
 C        -0.285448        -1.132692         0.502244
 C        -0.308166         0.062846        -0.353323
 O         0.268444        -0.074010        -1.444698
 O        -0.847023         1.184823         0.132246
 C        -1.711732         1.380188         1.157698
 H        -3.849440         0.928168         3.311159
 H        -3.923620        -0.785892         2.893764
 H        -2.537932        -0.202224         3.686095
 H        -3.747399        -1.243255         0.082286
 H        -2.841939         0.009118        -0.654037
 H        -2.075353        -1.899499         1.751286
 H         0.489077        -1.144060         1.351701
 H        -0.054184        -1.958491        -0.163249
 H        -1.157050         1.945623         1.962639
 H        -2.513745         2.132285         0.851234
