19
Iteration:  2652
 C        -3.234329         0.250994         2.830863
 C        -2.475827         0.082869         1.588947
 C        -2.990522        -0.671149         0.426383
 C        -1.806885        -1.237146         1.175498
 C        -0.536266        -1.221293         0.339256
 C        -0.264033         0.046497        -0.425543
 O         0.529099         0.239203        -1.351930
 O        -0.933201         1.209304        -0.012922
 C        -1.664082         1.293127         1.224131
 H        -3.803938         1.183107         2.617337
 H        -4.010681        -0.523173         2.903961
 H        -2.574522         0.189330         3.699295
 H        -3.956055        -1.273686         0.613212
 H        -2.905198        -0.199501        -0.525262
 H        -1.982803        -2.174120         1.721602
 H         0.375556        -1.485761         1.004130
 H        -0.596086        -2.024616        -0.384286
 H        -0.943959         1.411247         2.037430
 H        -2.235366         2.235941         1.121108
