19
Iteration:  4404charge 0 multiplicity 1
 C        -3.419034         0.069638         2.877843
 C        -2.430188         0.106658         1.607950
 C        -3.099404        -0.339708         0.397293
 C        -1.975194        -1.163611         0.961008
 C        -0.576961        -1.261833         0.288407
 C        -0.277009         0.046253        -0.444990
 O         0.411602         0.076011        -1.473921
 O        -0.627046         1.261539         0.157036
 C        -1.405790         1.218406         1.409197
 H        -4.312229         0.690242         2.737054
 H        -3.860711        -0.916550         3.060480
 H        -3.021778         0.240783         3.871605
 H        -4.068920        -0.712126         0.399059
 H        -2.900373         0.052508        -0.561582
 H        -2.418744        -2.066667         1.416695
 H         0.374842        -1.408485         0.887906
 H        -0.640206        -1.934888        -0.555778
 H        -0.546891         1.329547         2.079479
 H        -1.710822         2.253875         1.460869
