19
Iteration:   670charge 0 multiplicity 1
 C        -2.967773         0.037917         2.886760
 C        -2.542307         0.212454         1.483928
 C        -3.261555        -0.642897         0.411506
 C        -1.948074        -1.145006         1.087712
 C        -0.544352        -1.194159         0.392115
 C        -0.190665         0.104757        -0.303444
 O         0.689142         0.134333        -1.111947
 O        -1.068294         1.183665        -0.207260
 C        -1.654063         1.363704         1.090892
 H        -3.257756         0.983084         3.278485
 H        -3.596571        -0.839323         3.042435
 H        -2.099860        -0.336771         3.502212
 H        -4.191496        -1.143263         0.655661
 H        -3.225556        -0.307830        -0.626760
 H        -2.018766        -1.914276         1.764631
 H         0.191327        -1.150518         1.263297
 H        -0.270008        -1.915174        -0.353425
 H        -0.753956         1.445681         1.767624
 H        -2.175788         2.290516         1.101399
