19
Iteration:  2169charge 0 multiplicity 1
 C        -3.419787         0.111776         2.683102
 C        -2.436990         0.160949         1.494685
 C        -3.012753        -0.759921         0.411860
 C        -1.780623        -1.125567         1.150444
 C        -0.406723        -1.086813         0.481123
 C        -0.310617         0.181301        -0.440383
 O         0.217491         0.040364        -1.505514
 O        -0.692265         1.285939         0.118805
 C        -1.520479         1.262147         1.344005
 H        -4.442917         0.296811         2.421119
 H        -3.499786        -0.866084         3.241076
 H        -3.081693         0.889382         3.418677
 H        -3.973106        -1.242455         0.658206
 H        -3.000087        -0.695593        -0.682539
 H        -1.826761        -1.845744         2.016562
 H         0.531006        -1.236813         1.145858
 H        -0.328148        -1.897254        -0.210265
 H        -0.896512         1.186507         2.252651
 H        -1.993893         2.306904         1.307614
