19
Iteration:  4957charge 0 multiplicity 1
 C        -3.160182         0.261705         2.885160
 C        -2.483379         0.071251         1.566699
 C        -3.192265        -0.437605         0.338884
 C        -2.034133        -1.297048         0.945675
 C        -0.663829        -1.196876         0.176904
 C        -0.187758         0.068134        -0.398508
 O         0.468646         0.112004        -1.371826
 O        -0.663350         1.213688         0.210194
 C        -1.486204         1.182671         1.373188
 H        -3.622752         1.326207         2.842939
 H        -3.928501        -0.507549         3.082756
 H        -2.333295         0.301011         3.649574
 H        -4.224302        -0.785107         0.528924
 H        -3.265766         0.142162        -0.601068
 H        -2.202609        -2.346524         1.217060
 H         0.048199        -1.445152         0.940609
 H        -0.590571        -2.037660        -0.447484
 H        -0.921528         1.267003         2.354060
 H        -2.105910         2.082981         1.250982
