19
Iteration:  2424charge 0 multiplicity 1
 C        -3.224795         0.248347         2.997459
 C        -2.539057         0.074639         1.619772
 C        -3.130786        -0.671559         0.502498
 C        -1.766390        -1.165595         1.052121
 C        -0.469359        -1.251481         0.242151
 C        -0.100187         0.021191        -0.388641
 O         0.573797         0.229608        -1.394010
 O        -0.860514         1.152433         0.041858
 C        -1.836074         1.312417         1.130079
 H        -4.174353         0.901379         2.785096
 H        -3.686256        -0.657757         3.452180
 H        -2.491147         0.752066         3.647529
 H        -4.047632        -1.201554         0.670938
 H        -3.220598        -0.035427        -0.429446
 H        -1.896250        -2.117187         1.555656
 H         0.295765        -1.469782         0.984244
 H        -0.427140        -1.978460        -0.530313
 H        -1.223147         1.816453         1.914188
 H        -2.497108         2.097383         0.605655
