19
Iteration:  4343charge 0 multiplicity 1
 C        -3.112670         0.182346         2.954053
 C        -2.524488         0.092849         1.536767
 C        -3.251745        -0.495656         0.258390
 C        -2.157254        -1.188423         0.811967
 C        -0.691093        -1.177485         0.293223
 C        -0.221749         0.079017        -0.388001
 O         0.549674         0.155868        -1.315137
 O        -0.706185         1.225226         0.138811
 C        -1.363669         1.140083         1.386325
 H        -4.253866         0.362223         2.994589
 H        -2.739327        -0.799373         3.403070
 H        -2.604025         1.104988         3.336353
 H        -4.245683        -0.934086         0.347278
 H        -3.011410         0.064576        -0.714520
 H        -2.468302        -2.040830         1.403696
 H        -0.024195        -1.403927         1.110113
 H        -0.470228        -1.991446        -0.418203
 H        -0.627817         0.940548         2.299391
 H        -1.939053         2.047655         1.710233
