19
Iteration:  1268charge 0 multiplicity 1
 C        -3.197030         0.129543         2.775487
 C        -2.401078         0.138590         1.496952
 C        -3.113477        -0.569148         0.409215
 C        -1.899522        -1.261888         1.148803
 C        -0.567103        -1.096363         0.550787
 C        -0.297054         0.121606        -0.375136
 O         0.527936         0.084922        -1.287432
 O        -1.116284         1.249685        -0.177624
 C        -1.336563         1.202255         1.221924
 H        -4.118757         0.859509         2.643051
 H        -3.581605        -0.853363         3.190903
 H        -2.610663         0.602919         3.625808
 H        -4.085714        -1.012080         0.480623
 H        -2.757348        -0.228317        -0.621946
 H        -2.275612        -2.023319         1.813575
 H         0.140662        -1.037358         1.358353
 H        -0.245134        -1.890195        -0.138247
 H        -0.353017         1.110451         1.871447
 H        -1.729250         2.180274         1.359325
