19
Iteration:  3441charge 0 multiplicity 1
 C        -3.178716         0.184699         2.913546
 C        -2.417457         0.063645         1.543317
 C        -3.060067        -0.340374         0.252292
 C        -2.076808        -1.267008         0.931534
 C        -0.687385        -1.283096         0.334529
 C        -0.337503         0.057331        -0.411836
 O         0.461230         0.152078        -1.341361
 O        -0.735869         1.232497         0.143635
 C        -1.424641         1.181906         1.367920
 H        -2.570083         0.929274         3.489741
 H        -4.070782         0.766463         2.890246
 H        -3.150805        -0.744944         3.442491
 H        -4.109548        -0.802879         0.339971
 H        -2.844636         0.146225        -0.665505
 H        -2.465920        -2.277358         1.251207
 H         0.091636        -1.498644         1.072690
 H        -0.454423        -1.989285        -0.527756
 H        -0.674389         1.046052         2.124177
 H        -1.929224         2.144685         1.458052
