19
Iteration:  1950
 C        -3.231482         0.205053         2.867790
 C        -2.493743         0.194660         1.610056
 C        -3.197317        -0.781166         0.504063
 C        -1.812483        -1.136969         1.194316
 C        -0.631803        -1.241887         0.262853
 C        -0.230264         0.072512        -0.473514
 O         0.727725         0.283093        -1.240093
 O        -0.995351         1.170517        -0.138514
 C        -1.563304         1.282748         1.196192
 H        -3.989423         0.941707         2.909123
 H        -3.617263        -0.805671         3.035937
 H        -2.526770         0.358846         3.699451
 H        -4.042840        -1.353768         0.832945
 H        -3.054566        -0.514762        -0.577037
 H        -1.963706        -2.127882         1.662967
 H         0.246565        -1.545990         0.746682
 H        -0.803408        -2.001629        -0.479429
 H        -0.737833         1.395687         1.919970
 H        -2.064543         2.302888         1.249802
