19
Iteration:  1810charge 0 multiplicity 1
 C        -3.332868         0.338729         2.736178
 C        -2.380734         0.024972         1.633544
 C        -2.939926        -0.548369         0.387874
 C        -1.767030        -1.281418         1.247769
 C        -0.470808        -1.281960         0.373256
 C        -0.314832         0.060410        -0.485944
 O         0.455867         0.244782        -1.387611
 O        -1.023597         1.161347        -0.028215
 C        -1.576248         1.252184         1.336817
 H        -4.103509         0.944067         2.228299
 H        -3.772945        -0.638657         3.049162
 H        -2.977333         0.836768         3.669976
 H        -3.884351        -1.102074         0.429438
 H        -2.548529        -0.277449        -0.534074
 H        -2.111743        -2.123763         1.863249
 H         0.544517        -1.319204         0.953490
 H        -0.422359        -2.128715        -0.290847
 H        -0.740439         1.478067         1.996849
 H        -2.277128         2.096345         1.418484
