19
Iteration:  2779charge 0 multiplicity 1
 C        -3.112216         0.163196         2.841180
 C        -2.439959         0.079854         1.489830
 C        -3.222246        -0.880296         0.596126
 C        -1.812627        -1.197889         1.134636
 C        -0.711527        -1.115652         0.177792
 C        -0.303949         0.181705        -0.455305
 O         0.741165         0.168021        -1.058631
 O        -0.966844         1.350475        -0.202452
 C        -1.572460         1.270531         1.196743
 H        -3.716219         1.109746         2.856558
 H        -3.910194        -0.592460         2.696523
 H        -2.573948         0.086373         3.814686
 H        -4.195417        -1.431391         0.974244
 H        -3.382317        -0.854187        -0.462681
 H        -1.804762        -1.908205         1.928777
 H         0.148419        -1.243999         0.754378
 H        -0.754930        -1.956396        -0.550474
 H        -0.710803         1.365596         1.952269
 H        -2.145620         2.158590         1.324489
