19
Iteration:  1584charge 0 multiplicity 1
 C        -3.251491         0.146564         2.887296
 C        -2.410713         0.129026         1.548337
 C        -3.126601        -0.642413         0.466579
 C        -1.803467        -1.225474         1.081820
 C        -0.487727        -1.149274         0.342439
 C        -0.206761         0.073024        -0.397852
 O         0.524404         0.017102        -1.353875
 O        -0.841815         1.228072        -0.042716
 C        -1.754749         1.450460         1.231110
 H        -4.195647         0.717516         2.743963
 H        -3.584129        -0.850542         3.205815
 H        -2.760963         0.482641         3.780215
 H        -4.080389        -0.970444         0.824514
 H        -3.142375        -0.461919        -0.623597
 H        -2.001294        -2.021523         1.804652
 H         0.368978        -1.187633         0.994753
 H        -0.395381        -2.013898        -0.310208
 H        -1.046334         1.736027         1.939391
 H        -2.342697         2.299920         0.950527
