19
Iteration:  2758
 C        -3.066277         0.191693         2.930414
 C        -2.483722         0.082457         1.550642
 C        -3.120790        -0.746093         0.401179
 C        -1.859190        -1.295289         1.124107
 C        -0.631461        -1.211172         0.263312
 C        -0.205184         0.119797        -0.338109
 O         0.707380         0.220100        -1.118334
 O        -1.041597         1.229946        -0.168892
 C        -1.711145         1.390624         1.123738
 H        -3.448334         1.161160         3.167288
 H        -3.768331        -0.609357         3.219123
 H        -2.215875         0.197308         3.637845
 H        -4.196770        -1.134552         0.647308
 H        -3.138610        -0.479423        -0.645845
 H        -1.913770        -2.125996         1.813393
 H         0.237824        -1.656250         0.627242
 H        -0.885090        -1.772576        -0.650744
 H        -0.872053         1.598651         1.864172
 H        -2.280365         2.276969         1.138827
