19
Iteration:   462charge 0 multiplicity 1
 C        -3.403513         0.225017         2.731464
 C        -2.457126         0.130634         1.545462
 C        -3.051156        -0.609852         0.358209
 C        -1.851231        -1.223894         1.104756
 C        -0.538863        -1.162011         0.411694
 C        -0.240713         0.112769        -0.382308
 O         0.406678         0.126730        -1.400561
 O        -0.925456         1.233576        -0.002065
 C        -1.345083         1.196277         1.371812
 H        -4.357387        -0.247303         2.656892
 H        -2.772756        -0.205882         3.610215
 H        -3.583106         1.262082         3.225124
 H        -4.036521        -1.002563         0.678320
 H        -2.943836        -0.393891        -0.678971
 H        -2.021218        -2.113583         1.715086
 H         0.333212        -1.201855         1.157400
 H        -0.351755        -1.985099        -0.275151
 H        -0.417635         0.906453         1.970710
 H        -1.665822         2.230459         1.568317
