19
Iteration:  2416charge 0 multiplicity 1
 C        -3.176208         0.189281         2.991728
 C        -2.511899         0.128111         1.660266
 C        -3.122572        -0.638637         0.486394
 C        -1.810272        -1.203538         1.022491
 C        -0.494240        -1.232533         0.294118
 C        -0.162569         0.056492        -0.373236
 O         0.565327         0.219932        -1.312006
 O        -0.816143         1.117983        -0.027582
 C        -1.864599         1.372007         1.050575
 H        -4.095078         0.771490         3.035209
 H        -3.426480        -0.776587         3.452902
 H        -2.653016         0.651358         3.797478
 H        -3.892726        -1.281179         0.664716
 H        -3.088737        -0.152330        -0.436462
 H        -2.054219        -2.202916         1.422182
 H         0.500930        -1.445337         0.836942
 H        -0.505511        -2.003974        -0.531946
 H        -1.349759         1.833701         1.833033
 H        -2.470961         2.183272         0.657560
