19
Iteration:  3308charge 0 multiplicity 1
 C        -3.339686         0.018127         2.837037
 C        -2.505924         0.172847         1.506960
 C        -3.230395        -0.598150         0.342062
 C        -1.990989        -1.182961         1.058043
 C        -0.573945        -1.146535         0.446831
 C        -0.287774         0.081804        -0.516130
 O         0.407611         0.130624        -1.504546
 O        -0.562250         1.308111         0.182490
 C        -1.380077         1.231815         1.331089
 H        -4.298227        -0.459408         2.739170
 H        -2.816954        -0.411340         3.684752
 H        -3.469484         1.075155         3.165649
 H        -4.224017        -0.966312         0.524360
 H        -2.991916        -0.322697        -0.743980
 H        -2.184577        -2.006588         1.696559
 H         0.236495        -0.915525         1.222973
 H        -0.339741        -2.113626        -0.069843
 H        -0.759220         0.979609         2.281989
 H        -1.731372         2.240803         1.458393
