19
Iteration:  3942charge 0 multiplicity 1
 C        -3.228351         0.077156         2.975171
 C        -2.502849         0.161256         1.638423
 C        -3.291215        -0.233784         0.403628
 C        -2.085244        -1.134886         0.854401
 C        -0.690498        -1.309042         0.204582
 C        -0.183431         0.036320        -0.446324
 O         0.618498         0.068984        -1.350615
 O        -0.665541         1.142022         0.106850
 C        -1.387488         1.285241         1.346142
 H        -3.578944        -0.952633         3.210020
 H        -2.720950         0.373050         3.903824
 H        -4.159121         0.662615         3.054487
 H        -4.185822        -0.767137         0.546037
 H        -3.204231         0.197312        -0.619114
 H        -2.406665        -2.150448         1.145148
 H        -0.110772        -1.721344         0.943511
 H        -0.728919        -1.976231        -0.685897
 H        -0.643101         1.156113         2.131690
 H        -1.830018         2.255451         1.443514
