19
Iteration:  3387charge 0 multiplicity 1
 C        -3.338849         0.131309         2.883892
 C        -2.446527         0.096065         1.583701
 C        -3.194805        -0.418524         0.278627
 C        -1.948391        -1.158284         0.988478
 C        -0.566880        -1.194357         0.359892
 C        -0.232982         0.033538        -0.411555
 O         0.375826         0.147964        -1.488976
 O        -0.639130         1.177523         0.093269
 C        -1.404153         1.192786         1.455376
 H        -3.010356        -0.556922         3.725366
 H        -3.299884         1.135806         3.269659
 H        -4.387425        -0.067778         2.644037
 H        -4.180713        -0.981876         0.287403
 H        -3.083343         0.216136        -0.581032
 H        -2.182060        -2.075316         1.594589
 H         0.251697        -1.329584         1.171593
 H        -0.393039        -2.069766        -0.366200
 H        -0.733424         1.199059         2.379754
 H        -1.935241         2.169780         1.424850
