19
Iteration:   772charge 0 multiplicity 1
 C        -2.906215         0.297623         2.883234
 C        -2.536341         0.166593         1.438800
 C        -3.356169        -1.072574         0.838697
 C        -1.815488        -1.109273         1.056499
 C        -0.984375        -1.035821        -0.216414
 C        -0.149321         0.140566        -0.309736
 O         0.876663         0.103332        -1.027820
 O        -0.561878         1.205995         0.423787
 C        -1.969210         1.358570         0.660103
 H        -3.765974         0.857828         2.985710
 H        -3.251573        -0.583745         3.386724
 H        -2.158069         0.774729         3.452974
 H        -3.957864        -1.637883         1.571287
 H        -3.748931        -1.046986        -0.250289
 H        -1.423773        -1.950316         1.785011
 H        -0.361862        -1.890713        -0.429462
 H        -1.760420        -1.058950        -1.063955
 H        -2.195350         2.234931         1.209860
 H        -2.540844         1.444646        -0.283712
