19
Iteration:  1531charge 0 multiplicity 1
 C        -2.948591         0.213692         2.851535
 C        -2.522455         0.045925         1.496539
 C        -3.227534        -0.680498         0.349987
 C        -1.906311        -1.206100         0.984617
 C        -0.485978        -1.188248         0.527867
 C        -0.273702         0.058641        -0.362577
 O         0.566512         0.102272        -1.266310
 O        -0.928440         1.258161        -0.021505
 C        -1.713151         1.348802         1.124533
 H        -3.175075         1.243375         3.194851
 H        -3.796538        -0.360367         3.241341
 H        -2.072898        -0.101354         3.424541
 H        -4.139502        -1.185908         0.441024
 H        -3.163630        -0.112146        -0.590752
 H        -2.190180        -2.031170         1.645305
 H         0.212763        -0.944291         1.495266
 H        -0.151041        -2.208197         0.153370
 H        -1.060581         1.813588         1.901800
 H        -2.505377         2.047541         0.907642
