19
Iteration:  3089
 C        -3.201194         0.123701         2.920224
 C        -2.513689         0.060840         1.574529
 C        -3.317616        -0.683188         0.539168
 C        -1.920090        -1.242037         1.043866
 C        -0.433532        -1.179669         0.321344
 C        -0.149048         0.108855        -0.417549
 O         0.697470         0.223661        -1.294816
 O        -0.995798         1.276018        -0.178826
 C        -1.579306         1.306483         1.223776
 H        -3.922700        -0.742469         2.873687
 H        -2.572582         0.087682         3.822880
 H        -3.947920         1.007538         3.055874
 H        -4.248759        -1.073058         0.786097
 H        -3.328463        -0.229480        -0.521188
 H        -2.035988        -2.094277         1.760456
 H         0.300218        -1.112358         1.166262
 H        -0.278078        -2.055487        -0.254858
 H        -0.722587         1.019172         1.921827
 H        -1.856777         2.302088         1.378327
