19
Iteration:  3025
 C        -3.104735         0.120860         2.811690
 C        -2.459745         0.068113         1.484854
 C        -3.098605        -0.673198         0.329279
 C        -1.822571        -1.241542         1.034168
 C        -0.404598        -1.117425         0.553370
 C        -0.260025         0.107380        -0.334821
 O         0.340123         0.093533        -1.404441
 O        -0.799825         1.313563         0.085896
 C        -1.760035         1.317177         1.202970
 H        -4.211425         0.342492         2.696907
 H        -2.958694        -0.767861         3.424318
 H        -2.620204         0.946161         3.346793
 H        -3.996941        -1.212356         0.486007
 H        -3.024249        -0.107104        -0.656394
 H        -2.150160        -2.198498         1.452736
 H         0.330375        -1.162371         1.319301
 H        -0.135586        -1.906102        -0.154614
 H        -1.158348         1.486644         2.088312
 H        -2.559683         2.128660         0.999880
