19
Iteration:  4863
 C        -3.339931         0.102840         2.861700
 C        -2.397237         0.018527         1.653654
 C        -3.020996        -0.217323         0.291867
 C        -2.017718        -1.214083         0.967232
 C        -0.571559        -1.226364         0.431840
 C        -0.202328         0.071417        -0.420637
 O         0.260476         0.051949        -1.517863
 O        -0.711579         1.197660         0.158077
 C        -1.349035         1.212420         1.388156
 H        -3.780756         1.021683         2.662585
 H        -4.077921        -0.596305         2.520955
 H        -2.993476        -0.071980         3.842310
 H        -4.066408        -0.435364         0.172352
 H        -2.662727         0.283400        -0.560549
 H        -2.407081        -2.122538         1.332042
 H         0.236375        -1.209414         1.228282
 H        -0.292150        -2.038977        -0.293365
 H        -0.569737         1.230263         2.235424
 H        -2.144671         2.009833         1.417948
