19
Iteration:  2721
 C        -2.980939         0.182718         3.098235
 C        -2.465153         0.044386         1.556861
 C        -3.224223        -0.600974         0.421658
 C        -1.955512        -1.259449         0.841778
 C        -0.545078        -1.155582         0.358976
 C        -0.157201         0.045662        -0.401885
 O         0.728021         0.235895        -1.200257
 O        -0.954369         1.085319        -0.071344
 C        -1.858572         1.397302         1.105966
 H        -3.856242         0.924288         3.008589
 H        -3.431444        -0.747805         3.482116
 H        -2.130581         0.426089         3.752877
 H        -4.032642        -1.122604         0.735386
 H        -3.239894         0.022369        -0.494684
 H        -2.175529        -2.237637         1.309024
 H         0.077489        -1.085174         1.285692
 H        -0.221072        -2.126459        -0.097996
 H        -1.230111         1.924991         1.827996
 H        -2.655819         2.068566         0.639713
