19
Iteration:  2007charge 0 multiplicity 1
 C        -3.123659         0.308180         2.894611
 C        -2.429911         0.077164         1.531131
 C        -3.091095        -0.724518         0.387767
 C        -1.902785        -1.266418         1.113527
 C        -0.561970        -1.207280         0.280693
 C        -0.330478         0.093976        -0.445608
 O         0.582688         0.230078        -1.264065
 O        -0.939819         1.191057         0.002510
 C        -1.648886         1.246070         1.253073
 H        -4.085009         0.822821         2.722821
 H        -3.436138        -0.485429         3.588613
 H        -2.520783         1.027552         3.449623
 H        -4.040971        -1.284157         0.307737
 H        -2.841576        -0.516805        -0.658071
 H        -1.809788        -2.178273         1.806069
 H         0.190905        -1.140533         1.007324
 H        -0.207119        -1.984639        -0.331705
 H        -0.933930         1.611139         2.022796
 H        -2.301986         2.100877         0.973623
