19
Iteration:   740
 C        -2.849263         0.315676         2.965164
 C        -2.498318         0.089418         1.457167
 C        -3.380190        -0.839542         0.645583
 C        -1.961612        -1.262375         1.043629
 C        -0.819295        -1.268728        -0.062348
 C        -0.150383         0.088729        -0.342012
 O         0.833481         0.256672        -1.003588
 O        -0.679227         1.227361         0.195953
 C        -1.928253         1.359634         0.831502
 H        -3.843112         0.633676         2.998022
 H        -2.603601        -0.499352         3.603771
 H        -2.253517         1.048052         3.387595
 H        -4.265937        -1.330431         1.072091
 H        -3.497144        -0.568377        -0.448451
 H        -1.947802        -2.107544         1.867818
 H        -0.051825        -1.914022         0.308584
 H        -1.338271        -1.716558        -0.968620
 H        -1.805365         2.158857         1.547504
 H        -2.556703         1.798469        -0.006588
