19
Iteration:  4527charge 0 multiplicity 1
 C        -3.315785        -0.000424         2.819045
 C        -2.480852         0.156669         1.560796
 C        -3.083978        -0.364249         0.276116
 C        -1.972199        -1.137805         1.055077
 C        -0.630663        -1.158638         0.312893
 C        -0.212801         0.061445        -0.404488
 O         0.325581        -0.008012        -1.429172
 O        -0.708319         1.304521         0.109078
 C        -1.366945         1.215934         1.443944
 H        -4.004029         0.852801         2.915830
 H        -3.862855        -0.975097         2.712874
 H        -2.631285        -0.080160         3.716430
 H        -4.107201        -0.517342         0.706589
 H        -2.822643        -0.087436        -0.728772
 H        -2.289769        -2.081631         1.431663
 H         0.165687        -1.465484         1.072393
 H        -0.567247        -1.961748        -0.451398
 H        -0.440496         1.032652         2.181095
 H        -1.324663         2.305759         1.687138
