19
Iteration:  2208
 C        -3.201459         0.185902         2.906267
 C        -2.438465         0.050604         1.534751
 C        -2.983462        -0.615530         0.267291
 C        -1.858534        -1.317842         1.054662
 C        -0.446821        -1.208710         0.513614
 C        -0.310683         0.050335        -0.379713
 O         0.260352         0.171429        -1.424557
 O        -0.669720         1.275958         0.130170
 C        -1.728000         1.343978         1.159781
 H        -4.277420         0.397922         2.660545
 H        -3.192793        -0.753017         3.482435
 H        -2.714043         1.025257         3.386781
 H        -4.004981        -1.085972         0.384053
 H        -2.554431        -0.376626        -0.677506
 H        -2.036606        -2.101591         1.806920
 H         0.297736        -1.213501         1.338381
 H        -0.234013        -1.997748        -0.303039
 H        -1.370461         2.038767         1.981276
 H        -2.516347         2.080379         0.856102
