19
Iteration:  3395charge 0 multiplicity 1
 C        -3.318024         0.126781         2.849706
 C        -2.525422         0.138903         1.502407
 C        -3.193154        -0.461163         0.335253
 C        -1.961064        -1.145122         0.962732
 C        -0.560691        -1.192990         0.359608
 C        -0.225918         0.028558        -0.427962
 O         0.380519         0.096735        -1.440655
 O        -0.670761         1.253937         0.113682
 C        -1.340025         1.197961         1.483560
 H        -2.868548        -0.482497         3.644743
 H        -3.432687         1.119862         3.280192
 H        -4.247669        -0.419434         2.556360
 H        -4.129130        -0.910749         0.704189
 H        -3.259156         0.102317        -0.652973
 H        -2.133626        -2.124937         1.364080
 H         0.277948        -1.254102         1.013260
 H        -0.515249        -2.074935        -0.304626
 H        -0.643054         0.977513         2.262012
 H        -1.673786         2.182843         1.462882
