19
Iteration:   930
 C        -2.157947         0.478303         2.920592
 C        -2.448609         0.056669         1.389390
 C        -3.418615        -1.081731         0.935556
 C        -1.914644        -1.258339         0.754335
 C        -1.175068        -1.028993        -0.619525
 C        -0.206595         0.161219        -0.240297
 O         0.957283         0.058290        -0.067361
 O        -0.833363         1.327833         0.087229
 C        -2.271240         1.219029         0.476789
 H        -3.039515         1.005120         3.294155
 H        -1.910286        -0.317929         3.620921
 H        -1.304582         1.133549         2.863166
 H        -3.950475        -1.662873         1.649799
 H        -4.022221        -0.759686         0.062199
 H        -1.343328        -1.859423         1.383485
 H        -0.709807        -2.053035        -0.871892
 H        -1.969903        -0.778116        -1.397057
 H        -2.493441         2.196928         1.078079
 H        -2.873827         1.397549        -0.471607
