19
Iteration:  4359
 C        -3.083823         0.173101         2.884615
 C        -2.469886         0.093249         1.472663
 C        -3.150478        -0.340171         0.204203
 C        -2.045466        -1.259026         0.962944
 C        -0.683776        -1.295149         0.253640
 C        -0.298917         0.051770        -0.386206
 O         0.468362         0.192131        -1.278802
 O        -0.740325         1.210011         0.150907
 C        -1.437465         1.168895         1.395387
 H        -4.108295         0.359161         2.903626
 H        -3.109468        -0.605066         3.578374
 H        -2.737479         0.925799         3.558753
 H        -4.195006        -0.675510         0.296592
 H        -3.023539         0.160589        -0.719387
 H        -2.186711        -2.278030         1.389399
 H         0.044797        -1.400803         1.098989
 H        -0.590517        -2.135157        -0.440637
 H        -0.787780         0.918108         2.247750
 H        -1.678768         2.224494         1.569995
