19
Iteration:   824
 C        -2.551823         0.492216         2.906076
 C        -2.486369         0.030863         1.442011
 C        -3.417300        -1.063007         0.902867
 C        -1.930526        -1.237072         0.863166
 C        -1.071837        -1.031067        -0.434775
 C        -0.154943         0.125411        -0.300998
 O         1.009782         0.260367        -0.637125
 O        -0.723716         1.152809         0.343317
 C        -2.121978         1.194477         0.582419
 H        -2.994621         1.559061         2.938562
 H        -3.261462         0.003108         3.651650
 H        -1.514111         0.773488         3.351440
 H        -4.021881        -1.680553         1.594408
 H        -3.931418        -0.776801        -0.076725
 H        -1.507165        -1.929909         1.608000
 H        -0.547260        -1.970004        -0.595902
 H        -1.727980        -1.014392        -1.268059
 H        -2.359166         1.987237         1.244508
 H        -2.633329         1.330616        -0.355780
