19
Iteration:  2607charge 0 multiplicity 1
 C        -3.392983         0.285630         2.747489
 C        -2.465432         0.076157         1.586326
 C        -3.014028        -0.677692         0.445864
 C        -1.737761        -1.269444         1.061566
 C        -0.413560        -1.163393         0.434295
 C        -0.309609         0.101187        -0.454380
 O         0.335974         0.138132        -1.468151
 O        -0.797759         1.241330         0.051153
 C        -1.572513         1.243048         1.373656
 H        -3.867921         1.254247         2.620213
 H        -4.309270        -0.305847         2.944785
 H        -2.770790         0.212921         3.691344
 H        -3.903886        -1.381737         0.566594
 H        -2.998015        -0.306763        -0.647062
 H        -1.953866        -2.160610         1.603529
 H         0.487914        -1.007440         1.169170
 H        -0.143163        -1.995744        -0.208680
 H        -0.890275         1.367555         2.223524
 H        -2.155317         2.143368         1.252421
