19
Iteration:  4005charge 0 multiplicity 1
 C        -3.123615         0.102453         2.884789
 C        -2.438143         0.116948         1.456052
 C        -3.288295        -0.368745         0.316405
 C        -2.103108        -1.190444         0.905325
 C        -0.724230        -1.249465         0.274795
 C        -0.179762         0.076538        -0.337477
 O         0.450608         0.043020        -1.394667
 O        -0.592116         1.303620         0.229526
 C        -1.451609         1.211079         1.381903
 H        -4.193926        -0.118817         2.789059
 H        -2.688346        -0.681893         3.513552
 H        -3.038681         1.155824         3.167765
 H        -4.250243        -0.718151         0.466944
 H        -3.113398        -0.047326        -0.739046
 H        -2.434054        -2.150276         1.423085
 H        -0.041188        -1.638937         1.127159
 H        -0.582178        -2.034472        -0.541627
 H        -0.727629         1.045234         2.211694
 H        -1.718133         2.303950         1.529457
