19
Iteration:  4395charge 0 multiplicity 1
 C        -3.419636         0.070134         2.949375
 C        -2.384706         0.072362         1.648675
 C        -3.068322        -0.326837         0.313720
 C        -1.952997        -1.193042         0.942105
 C        -0.647788        -1.211612         0.220790
 C        -0.207383         0.010072        -0.390395
 O         0.380404         0.070171        -1.415442
 O        -0.691755         1.227586         0.133888
 C        -1.397803         1.311588         1.409534
 H        -4.128749         0.686912         2.396983
 H        -3.622973        -1.011378         3.013436
 H        -2.896749         0.616495         3.717556
 H        -4.040385        -0.686507         0.472310
 H        -2.829220         0.207114        -0.608700
 H        -2.328770        -2.130298         1.325277
 H         0.218352        -1.603041         0.909013
 H        -0.594006        -1.934426        -0.602577
 H        -0.635656         1.078164         2.157848
 H        -1.975860         2.259303         1.488409
