19
Iteration:  1493
 C        -3.226609         0.286208         2.965378
 C        -2.443070         0.068588         1.613476
 C        -3.102326        -0.644955         0.391122
 C        -1.922256        -1.243759         1.104532
 C        -0.513143        -1.216414         0.402672
 C        -0.184714         0.040932        -0.406302
 O         0.668973         0.178123        -1.314984
 O        -1.072725         1.179164        -0.164733
 C        -1.589919         1.305550         1.203194
 H        -3.552830         1.321099         2.997512
 H        -4.044163        -0.433918         3.140591
 H        -2.515517         0.059074         3.806423
 H        -4.140873        -1.131737         0.410430
 H        -2.998410         0.112969        -0.395268
 H        -2.124509        -2.241247         1.531716
 H         0.322971        -1.180166         1.062807
 H        -0.452913        -2.051237        -0.263018
 H        -0.782259         1.478208         1.888092
 H        -2.229858         2.231070         1.087696
