19
Iteration:   273
 C        -2.952880         0.125138         2.840653
 C        -2.444025         0.125715         1.452464
 C        -3.506953        -0.670281         0.644622
 C        -2.069913        -1.193863         0.949148
 C        -0.911444        -1.176393        -0.067303
 C        -0.178523         0.091658        -0.286682
 O         0.900753         0.090344        -0.827370
 O        -0.832508         1.282608        -0.121828
 C        -1.516456         1.353884         1.129623
 H        -3.935442         0.738909         2.902366
 H        -3.021658        -0.909146         3.251970
 H        -2.111455         0.690277         3.359093
 H        -4.266385        -1.209283         1.212849
 H        -3.747674        -0.336978        -0.340994
 H        -1.823882        -1.928667         1.670208
 H        -0.161042        -1.968606         0.214499
 H        -1.191244        -1.426455        -1.102531
 H        -0.631754         1.220211         1.831143
 H        -1.992319         2.333695         1.134505
