19
Iteration:  2714
 C        -2.968332         0.110484         3.043334
 C        -2.507990         0.052386         1.559676
 C        -3.296761        -0.594187         0.432978
 C        -1.959126        -1.256969         0.875460
 C        -0.513825        -1.160089         0.405183
 C        -0.185823         0.081970        -0.407742
 O         0.725364         0.184646        -1.199696
 O        -0.905551         1.181467        -0.131029
 C        -1.823347         1.348680         1.110392
 H        -3.660412         0.908521         3.125203
 H        -3.350826        -0.814301         3.501704
 H        -2.362193         0.641341         3.805436
 H        -4.247781        -1.149748         0.846389
 H        -3.315485        -0.126485        -0.571796
 H        -2.096262        -2.191112         1.376580
 H         0.039267        -1.062249         1.308624
 H        -0.004999        -1.956299        -0.157046
 H        -1.333732         1.876360         1.990430
 H        -2.479586         2.063320         0.712575
