19
Iteration:  2626
 C        -3.475745         0.420483         2.893994
 C        -2.337136        -0.035548         1.741015
 C        -3.017424        -0.664316         0.399105
 C        -1.791600        -1.368507         1.044112
 C        -0.382578        -1.206250         0.325128
 C        -0.152636         0.097997        -0.409958
 O         0.391066         0.173304        -1.477119
 O        -0.922162         1.233972         0.062213
 C        -1.624770         1.278286         1.250104
 H        -3.707031         1.386011         2.450660
 H        -4.222846        -0.379277         2.653848
 H        -3.049385         0.328990         3.954507
 H        -4.002299        -1.088406         0.617851
 H        -2.809694         0.063647        -0.550313
 H        -1.812644        -2.345390         1.505697
 H         0.343379        -1.452863         1.153041
 H        -0.233698        -2.045028        -0.432011
 H        -1.026464         1.723334         2.107960
 H        -2.361273         2.061437         1.141270
