19
Iteration:  4696charge 0 multiplicity 1
 C        -3.058307         0.202049         3.009271
 C        -2.497155         0.048974         1.515777
 C        -3.304737        -0.379841         0.330636
 C        -2.151949        -1.260054         0.780081
 C        -0.645724        -1.232679         0.295001
 C        -0.168014         0.045712        -0.377968
 O         0.551851         0.144688        -1.275325
 O        -0.778396         1.234882         0.110752
 C        -1.451490         1.202120         1.281347
 H        -3.352608         1.222693         3.096215
 H        -3.885041        -0.491534         3.158248
 H        -2.247772         0.006323         3.696368
 H        -4.318929        -0.854561         0.561404
 H        -3.068083         0.216186        -0.562701
 H        -2.213142        -2.369275         1.053533
 H        -0.034361        -1.360859         1.269339
 H        -0.370925        -2.085079        -0.363441
 H        -0.555370         0.897247         2.025498
 H        -1.765731         2.270211         1.572353
