19
Iteration:   658
 C        -3.068528         0.127875         2.919012
 C        -2.487233         0.139285         1.465066
 C        -3.169418        -0.635520         0.374852
 C        -1.883348        -1.192260         1.018377
 C        -0.467894        -1.144115         0.456776
 C        -0.250108         0.106019        -0.337788
 O         0.656835         0.138272        -1.173066
 O        -1.158289         1.159238        -0.204531
 C        -1.577241         1.342523         1.198777
 H        -3.422974         1.067020         3.386336
 H        -4.078666        -0.311709         2.841968
 H        -2.302270        -0.325218         3.625257
 H        -4.054515        -1.092472         0.688670
 H        -3.159766        -0.270883        -0.643818
 H        -2.077827        -1.897029         1.735904
 H         0.344044        -1.494260         1.173748
 H        -0.438380        -1.976605        -0.203650
 H        -0.718195         1.326306         1.950683
 H        -1.991581         2.328320         1.223882
