19
Iteration:  1657
 C        -3.289817         0.260868         2.754302
 C        -2.456643         0.049205         1.493970
 C        -3.128497        -0.810141         0.385667
 C        -1.827808        -1.226218         1.149954
 C        -0.464607        -1.038542         0.531837
 C        -0.298893         0.099031        -0.437959
 O         0.380538         0.082711        -1.410691
 O        -0.866357         1.346848        -0.011206
 C        -1.432371         1.204939         1.264765
 H        -4.030239         1.066216         2.668130
 H        -3.862493        -0.679003         2.993160
 H        -2.762163         0.432801         3.721219
 H        -4.144543        -0.997910         0.688081
 H        -3.275551        -0.591669        -0.725432
 H        -1.897793        -2.143967         1.688623
 H         0.372798        -0.831988         1.330939
 H        -0.108616        -1.872316        -0.050413
 H        -0.696041         1.043028         2.116432
 H        -1.804864         2.271013         1.485829
