19
Iteration:  1260charge 0 multiplicity 1
 C        -3.207927         0.113080         2.817465
 C        -2.484772         0.221439         1.483173
 C        -3.087730        -0.577938         0.382289
 C        -1.934016        -1.208630         1.123394
 C        -0.512172        -1.164630         0.512635
 C        -0.225321         0.108480        -0.347247
 O         0.524518         0.068159        -1.274994
 O        -1.138306         1.227222        -0.189600
 C        -1.349325         1.269165         1.226851
 H        -4.197426         0.601767         2.900789
 H        -3.273591        -0.934069         3.136757
 H        -2.528250         0.532699         3.588235
 H        -4.112761        -0.841654         0.703555
 H        -3.051976        -0.282250        -0.684944
 H        -2.186959        -2.078256         1.734594
 H         0.174422        -1.163876         1.457845
 H        -0.037418        -1.993931        -0.151070
 H        -0.388380         1.105042         1.670295
 H        -1.736154         2.237331         1.570678
