19
Iteration:  1370charge 0 multiplicity 1
 C        -3.138441         0.141889         2.778955
 C        -2.457356         0.125412         1.469640
 C        -3.095739        -0.762448         0.399032
 C        -1.884262        -1.156400         1.137013
 C        -0.573076        -1.142264         0.421873
 C        -0.245289         0.099238        -0.340408
 O         0.210998        -0.008077        -1.433181
 O        -0.469662         1.350848         0.326018
 C        -1.735440         1.385479         0.994997
 H        -3.823538         0.990489         2.977293
 H        -3.771543        -0.770006         2.866353
 H        -2.345979         0.217461         3.583909
 H        -3.950386        -1.350982         0.719561
 H        -3.069372        -0.616045        -0.667820
 H        -1.894444        -1.908999         1.942435
 H         0.229088        -1.340806         1.136343
 H        -0.483511        -1.946414        -0.378648
 H        -1.495273         2.080099         1.794356
 H        -2.458002         1.910619         0.300493
