19
Iteration:  1816charge 0 multiplicity 1
 C        -3.288897         0.312567         2.759695
 C        -2.364103         0.061487         1.661485
 C        -2.912644        -0.580315         0.384944
 C        -1.790628        -1.248415         1.222214
 C        -0.494591        -1.260968         0.386602
 C        -0.309023         0.019693        -0.452218
 O         0.472285         0.215391        -1.372692
 O        -1.030653         1.203531        -0.056693
 C        -1.619363         1.241192         1.338694
 H        -4.046723         0.854929         2.198852
 H        -3.746834        -0.649526         2.981721
 H        -2.964199         0.767202         3.698736
 H        -3.990470        -0.887805         0.453261
 H        -2.651547        -0.385127        -0.723475
 H        -1.999810        -2.223097         1.652306
 H         0.391448        -1.333218         0.892192
 H        -0.356170        -2.060386        -0.409776
 H        -0.800522         1.592169         2.038347
 H        -2.315708         2.117258         1.360045
