19
Iteration:  4732
 C        -3.179059         0.079849         2.834304
 C        -2.473647         0.156158         1.555804
 C        -3.168506        -0.383796         0.325953
 C        -1.981418        -1.207642         1.022936
 C        -0.753376        -1.200992         0.248726
 C        -0.288686         0.049273        -0.457030
 O         0.508551         0.076995        -1.298907
 O        -0.725430         1.277233         0.128049
 C        -1.367576         1.207017         1.337908
 H        -3.957149         0.897837         3.009923
 H        -3.741308        -0.875455         2.995336
 H        -2.507055         0.107237         3.749606
 H        -4.175148        -0.676984         0.366111
 H        -2.997248        -0.016497        -0.679061
 H        -2.325112        -2.086941         1.540280
 H         0.077455        -1.532620         0.893028
 H        -0.820091        -1.983573        -0.519545
 H        -0.606007         0.875249         2.164262
 H        -1.689549         2.268508         1.676056
