19
Iteration:  1696charge 0 multiplicity 1
 C        -3.263852         0.069018         2.921166
 C        -2.479576         0.153069         1.544918
 C        -2.942026        -0.599960         0.241901
 C        -1.812578        -1.077974         1.075692
 C        -0.315885        -1.113677         0.544342
 C        -0.269379         0.027269        -0.408684
 O         0.281112        -0.042654        -1.453302
 O        -0.836332         1.225438         0.096688
 C        -1.687653         1.404744         1.190030
 H        -3.847299         0.975862         3.148895
 H        -3.960654        -0.775021         2.878282
 H        -2.615765        -0.198955         3.779109
 H        -3.932425        -1.090297         0.263971
 H        -2.811708         0.059960        -0.662612
 H        -2.035105        -2.029866         1.602361
 H         0.426478        -1.092999         1.308348
 H        -0.233711        -2.110083         0.033667
 H        -1.124852         1.931989         1.972876
 H        -2.494354         2.089751         0.950688
