19
Iteration:   779charge 0 multiplicity 1
 C        -2.912252         0.307158         2.898885
 C        -2.529960         0.100372         1.466476
 C        -3.347648        -1.070749         0.876135
 C        -1.804297        -1.122952         0.998967
 C        -1.034524        -0.974409        -0.230251
 C        -0.086719         0.138029        -0.290736
 O         0.860394         0.080873        -1.011553
 O        -0.571568         1.213315         0.465837
 C        -1.988375         1.332377         0.581430
 H        -3.731277         1.169209         2.922188
 H        -3.407739        -0.628011         3.335537
 H        -2.065983         0.831429         3.546136
 H        -3.911188        -1.670460         1.655256
 H        -3.835852        -1.128038        -0.084803
 H        -1.310387        -1.765424         1.654842
 H        -0.432935        -1.837468        -0.609095
 H        -1.587788        -0.774126        -1.124576
 H        -2.103157         2.308956         1.099592
 H        -2.525312         1.305058        -0.357480
