19
Iteration:  3361
 C        -3.221704         0.213783         2.898023
 C        -2.431952         0.091740         1.558472
 C        -2.929450        -0.361120         0.240271
 C        -1.929499        -1.358614         0.961132
 C        -0.585490        -1.292572         0.347416
 C        -0.287256         0.007473        -0.415151
 O         0.291937         0.138691        -1.438343
 O        -0.673232         1.204585         0.189331
 C        -1.579883         1.282380         1.434707
 H        -3.220767        -0.725376         3.392374
 H        -2.836997         1.026323         3.547514
 H        -4.296312         0.578572         2.731076
 H        -3.964839        -0.583426         0.197604
 H        -2.676718         0.360990        -0.617357
 H        -2.340543        -2.319487         1.173162
 H         0.231938        -1.342353         1.022385
 H        -0.406839        -2.085997        -0.349386
 H        -1.244596         1.672474         2.347070
 H        -2.319380         1.960626         1.129986
