19
Iteration:    61charge 0 multiplicity 1
 C        -3.444286         0.118484         2.663383
 C        -2.475017         0.174984         1.459302
 C        -3.030429        -0.459542         0.189718
 C        -1.943504        -1.185527         0.965801
 C        -0.417380        -1.164031         0.591755
 C        -0.261294         0.009835        -0.451549
 O        -0.011503         0.118170        -1.607775
 O        -0.442297         1.184173         0.330523
 C        -1.345115         1.244022         1.519897
 H        -4.528310        -0.204701         2.386277
 H        -3.018127        -0.548384         3.493743
 H        -3.573420         1.132009         3.148492
 H        -4.057121        -0.876759         0.497464
 H        -2.938083        -0.177803        -0.849072
 H        -2.243767        -2.170737         1.440053
 H         0.208173        -0.813497         1.436233
 H         0.029036        -2.195188         0.389996
 H        -0.702403         0.883882         2.428093
 H        -1.674588         2.314451         1.682927
