19
Iteration:  1601
 C        -3.299569         0.277430         2.794065
 C        -2.382780         0.090659         1.665710
 C        -2.995762        -0.642216         0.485962
 C        -1.842431        -1.236698         1.128130
 C        -0.536987        -1.275524         0.387019
 C        -0.249491         0.048436        -0.455818
 O         0.486218         0.204943        -1.382369
 O        -0.919132         1.193178        -0.005317
 C        -1.592610         1.307440         1.174218
 H        -4.204266         0.789485         2.448489
 H        -3.632332        -0.724964         3.209008
 H        -2.846205         0.909247         3.620623
 H        -3.946301        -1.227855         0.549754
 H        -2.789561        -0.086224        -0.466792
 H        -2.016659        -2.126863         1.741770
 H         0.332228        -1.386903         1.182894
 H        -0.396529        -2.089482        -0.349291
 H        -1.053624         1.798916         2.091020
 H        -2.484162         1.977830         0.908143
