19
Iteration:   742
 C        -2.848030         0.307340         2.955956
 C        -2.511824         0.108380         1.451781
 C        -3.387997        -0.850636         0.651893
 C        -1.946889        -1.272833         1.053199
 C        -0.851456        -1.276675        -0.070870
 C        -0.144205         0.093001        -0.350316
 O         0.833405         0.261564        -0.998676
 O        -0.659473         1.230536         0.207753
 C        -1.925069         1.356098         0.815258
 H        -3.928261         0.648947         3.012030
 H        -2.632873        -0.504440         3.667499
 H        -2.206309         1.069935         3.388581
 H        -4.229453        -1.311100         1.054537
 H        -3.462721        -0.616246        -0.420065
 H        -1.828298        -2.067813         1.872226
 H        -0.051729        -1.910379         0.288137
 H        -1.378064        -1.712490        -0.965014
 H        -1.830111         2.174364         1.574660
 H        -2.592270         1.820043         0.002596
