19
Iteration:  4913charge 0 multiplicity 1
 C        -3.247169         0.140867         2.815252
 C        -2.479181         0.155896         1.469930
 C        -3.147069        -0.450568         0.268270
 C        -2.036982        -1.151446         0.983465
 C        -0.637516        -1.202954         0.368516
 C        -0.249884         0.072437        -0.332251
 O         0.339773         0.100247        -1.436916
 O        -0.636824         1.216975         0.139231
 C        -1.339220         1.169950         1.461994
 H        -3.971336         1.035125         2.952674
 H        -3.700123        -0.855312         2.932599
 H        -2.331341         0.230279         3.464669
 H        -4.201505        -0.590720         0.442457
 H        -2.996729        -0.158253        -0.799980
 H        -2.163620        -2.028240         1.639752
 H         0.159104        -1.525044         1.028255
 H        -0.633786        -1.897673        -0.440878
 H        -0.724561         0.855231         2.266981
 H        -1.801376         2.089889         1.737715
