19
Iteration:   427
 C        -3.262966         0.261782         2.925598
 C        -2.395953         0.018601         1.637972
 C        -3.130310        -0.535176         0.410904
 C        -1.953821        -1.243806         1.029436
 C        -0.617982        -1.292919         0.227914
 C        -0.167208         0.047858        -0.424423
 O         0.666187         0.215930        -1.326603
 O        -0.866908         1.196699        -0.001538
 C        -1.670815         1.267080         1.250689
 H        -3.616145        -0.552993         3.637977
 H        -2.462739         0.695736         3.634133
 H        -4.053023         1.057202         2.611016
 H        -4.116415        -0.912617         0.531112
 H        -2.947323        -0.049051        -0.527678
 H        -2.129202        -2.213692         1.609801
 H         0.193002        -1.417249         1.088550
 H        -0.540720        -2.158627        -0.448713
 H        -1.024091         1.679403         2.135897
 H        -2.458477         2.024188         1.162537
