19
Iteration:  3212charge 0 multiplicity 1
 C        -3.190892         0.032536         2.914213
 C        -2.553935         0.127244         1.580869
 C        -3.280043        -0.644763         0.463408
 C        -1.962341        -1.152361         0.954805
 C        -0.542552        -1.076366         0.375410
 C        -0.157232         0.132159        -0.417709
 O         0.563776         0.063041        -1.380513
 O        -0.736913         1.328459         0.022359
 C        -1.565541         1.231139         1.227132
 H        -3.123333         1.048011         3.511967
 H        -4.271549        -0.065053         2.739984
 H        -2.819595        -0.787513         3.541695
 H        -4.193344        -1.292251         0.576301
 H        -3.238326        -0.215192        -0.555043
 H        -2.042225        -2.029690         1.564705
 H         0.117371        -1.234845         1.237510
 H        -0.349683        -1.865637        -0.428537
 H        -0.802257         1.272836         2.013716
 H        -2.232770         2.153580         1.231645
