19
Iteration:  2419
 C        -3.198652         0.210495         2.987515
 C        -2.526873         0.116656         1.653242
 C        -3.118646        -0.646542         0.493297
 C        -1.782245        -1.186044         1.031943
 C        -0.490453        -1.241046         0.275206
 C        -0.130706         0.033274        -0.370066
 O         0.564648         0.227548        -1.345214
 O        -0.829076         1.126901        -0.004011
 C        -1.870963         1.345109         1.075821
 H        -4.096379         0.769777         2.958538
 H        -3.564975        -0.688951         3.485330
 H        -2.572094         0.708767         3.772619
 H        -4.054432        -1.307522         0.690852
 H        -3.138384        -0.078955        -0.431308
 H        -1.991408        -2.203263         1.415841
 H         0.453565        -1.421031         0.865799
 H        -0.453453        -2.002066        -0.573425
 H        -1.275037         1.850526         1.879865
 H        -2.410754         2.155880         0.646235
