19
Iteration:  1039charge 0 multiplicity 1
 C        -2.567462         0.295376         3.024735
 C        -2.495241         0.079312         1.474170
 C        -3.460638        -0.848636         0.756029
 C        -2.007033        -1.275269         0.954605
 C        -0.922270        -1.166939        -0.107694
 C        -0.178444         0.183798        -0.227421
 O         0.901417         0.217335        -0.806301
 O        -0.642921         1.361404         0.181837
 C        -2.108549         1.164923         0.498622
 H        -3.236036         1.104251         3.259830
 H        -2.826334        -0.631179         3.493749
 H        -1.647016         0.555568         3.463190
 H        -4.169563        -1.522402         1.293617
 H        -3.880197        -0.573401        -0.226681
 H        -1.899700        -2.115022         1.664822
 H        -0.167322        -2.015337         0.156708
 H        -1.234536        -1.495448        -1.169013
 H        -2.313452         2.181268         0.998260
 H        -2.628678         1.109909        -0.506545
