19
Iteration:  4715charge 0 multiplicity 1
 C        -3.079799         0.157005         2.866121
 C        -2.472334         0.105033         1.490078
 C        -3.264001        -0.444569         0.320198
 C        -2.119650        -1.192380         0.854218
 C        -0.717127        -1.220402         0.299081
 C        -0.217440         0.144287        -0.402460
 O         0.539653         0.051109        -1.289452
 O        -0.775695         1.273482         0.057632
 C        -1.358775         1.155384         1.494919
 H        -3.618880         1.102812         2.900239
 H        -3.661735        -0.762996         2.940756
 H        -2.268260         0.066246         3.573707
 H        -4.216282        -0.826671         0.750663
 H        -3.208057         0.045764        -0.669214
 H        -2.390733        -2.036539         1.556572
 H         0.079260        -1.347512         1.052877
 H        -0.469705        -1.923034        -0.521390
 H        -0.620821         1.014070         2.286867
 H        -1.860946         2.061552         1.654421
