19
Iteration:  2771
 C        -3.095001         0.206440         2.886642
 C        -2.409860         0.116580         1.492758
 C        -3.154368        -0.887674         0.541695
 C        -1.904741        -1.203449         1.120138
 C        -0.705416        -1.169145         0.180944
 C        -0.260003         0.208261        -0.401347
 O         0.735065         0.158673        -1.079735
 O        -1.047168         1.321029        -0.159035
 C        -1.574457         1.299313         1.155432
 H        -3.711072         1.018543         2.999781
 H        -3.842058        -0.595176         2.861026
 H        -2.390934        -0.080451         3.681222
 H        -4.065405        -1.468777         0.879375
 H        -2.988374        -0.617557        -0.520312
 H        -1.904454        -2.001009         1.890230
 H         0.121691        -1.477000         0.855131
 H        -0.703441        -1.834026        -0.652449
 H        -0.788119         1.458355         1.924787
 H        -2.249481         2.125804         1.072293
