19
Iteration:  2218charge 0 multiplicity 1
 C        -3.158885         0.208611         2.853609
 C        -2.426171        -0.004189         1.542606
 C        -2.990993        -0.582514         0.320862
 C        -1.830841        -1.304020         1.077130
 C        -0.506954        -1.171639         0.447413
 C        -0.255970         0.079969        -0.327689
 O         0.299279         0.155866        -1.413368
 O        -0.726673         1.237149         0.144822
 C        -1.758744         1.340557         1.130086
 H        -4.232484         0.586944         2.769102
 H        -3.166508        -0.671437         3.505503
 H        -2.662008         0.951146         3.474735
 H        -4.018588        -1.062748         0.363585
 H        -3.012171        -0.070996        -0.636913
 H        -2.025256        -2.330765         1.343662
 H         0.286194        -0.994822         1.304304
 H        -0.085896        -2.133304        -0.014206
 H        -1.231679         1.892618         1.991047
 H        -2.631943         1.780387         0.555508
