19
Iteration:  4185
 C        -3.201713         0.175138         2.877280
 C        -2.492533         0.121437         1.569547
 C        -3.069278        -0.347566         0.229878
 C        -2.087540        -1.216031         0.898253
 C        -0.715032        -1.344508         0.118204
 C        -0.251127         0.078213        -0.388485
 O         0.484402         0.089793        -1.340953
 O        -0.701047         1.235267         0.209724
 C        -1.397728         1.233425         1.539959
 H        -3.245078        -0.820577         3.324113
 H        -2.770077         0.860983         3.635537
 H        -4.240061         0.520600         3.111397
 H        -4.109481        -0.694304         0.248549
 H        -2.772448         0.302667        -0.673787
 H        -2.339814        -2.185938         1.419478
 H         0.076845        -1.756742         0.784782
 H        -0.808935        -2.026946        -0.741468
 H        -0.560273         1.057689         2.230143
 H        -1.943632         2.179445         1.513767
