19
Iteration:  4200charge 0 multiplicity 1
 C        -3.232586         0.199535         2.972100
 C        -2.469273         0.131900         1.528442
 C        -3.289182        -0.411353         0.304844
 C        -2.071399        -1.192588         0.822986
 C        -0.721043        -1.230096         0.150793
 C        -0.166876         0.023389        -0.409086
 O         0.569118         0.144327        -1.363665
 O        -0.682383         1.200319         0.209898
 C        -1.393076         1.154506         1.481895
 H        -3.234918        -0.738743         3.544332
 H        -2.675588         0.934007         3.587542
 H        -4.165809         0.529128         2.559976
 H        -4.250203        -0.863623         0.488082
 H        -3.164351         0.066032        -0.599404
 H        -2.441556        -2.120245         1.278194
 H        -0.019774        -1.570323         0.876527
 H        -0.650142        -1.952877        -0.659916
 H        -0.713054         0.916124         2.350008
 H        -1.507510         2.222199         1.697487
