19
Iteration:   910charge 0 multiplicity 1
 C        -2.137754         0.389973         2.869443
 C        -2.419977         0.064770         1.421475
 C        -3.519304        -0.878512         0.992118
 C        -2.008061        -1.208891         0.686663
 C        -1.063594        -1.066930        -0.543985
 C        -0.171365         0.059180        -0.226319
 O         1.007238         0.195431        -0.075696
 O        -0.924676         1.222406        -0.015904
 C        -2.238437         1.209562         0.567933
 H        -3.064683         0.585613         3.482119
 H        -1.680596        -0.501814         3.366986
 H        -1.408928         1.268083         2.823154
 H        -3.866524        -1.644838         1.643096
 H        -4.169867        -0.542458         0.120782
 H        -1.759843        -2.124069         1.182508
 H        -0.323611        -1.919168        -0.602172
 H        -1.596822        -0.915612        -1.491174
 H        -2.543089         2.190177         0.970726
 H        -2.954735         1.128768        -0.308638
