19
Iteration:  4254charge 0 multiplicity 1
 C        -3.120624         0.116036         2.943993
 C        -2.436766         0.121281         1.533113
 C        -3.208523        -0.381350         0.247975
 C        -2.097197        -1.158254         0.870710
 C        -0.751806        -1.225507         0.115712
 C        -0.252990         0.039764        -0.339550
 O         0.588000         0.066256        -1.224787
 O        -0.746803         1.242465         0.130222
 C        -1.428501         1.188393         1.438373
 H        -3.342850        -0.920332         3.256570
 H        -2.338182         0.543854         3.628236
 H        -3.981180         0.766801         3.101350
 H        -4.168120        -0.776879         0.491226
 H        -3.109084         0.267858        -0.537590
 H        -2.428588        -2.099470         1.293247
 H        -0.008840        -1.646940         0.733928
 H        -0.769627        -1.845671        -0.768646
 H        -0.660094         1.274602         2.222937
 H        -1.853914         2.129385         1.258104
