19
Iteration:  2103
 C        -3.315827         0.224723         2.792467
 C        -2.514877         0.077385         1.475675
 C        -2.891253        -0.659541         0.279839
 C        -1.735583        -1.186928         1.030546
 C        -0.308681        -1.098455         0.598949
 C        -0.270543         0.151690        -0.329399
 O         0.228701         0.050549        -1.473775
 O        -0.986815         1.205167         0.011418
 C        -1.573038         1.273806         1.369623
 H        -3.471992         1.265070         3.060496
 H        -4.318180        -0.256548         2.996510
 H        -2.632354        -0.139770         3.605670
 H        -3.834440        -1.295582         0.446882
 H        -2.846268        -0.368491        -0.760384
 H        -2.084744        -2.095724         1.603479
 H         0.455363        -1.167539         1.535778
 H         0.042760        -1.936121        -0.043770
 H        -0.631926         1.261527         1.928544
 H        -2.007260         2.286849         1.289977
