19
Iteration:  4988charge 0 multiplicity 1
 C        -3.244858         0.084844         2.959919
 C        -2.426214         0.151725         1.603145
 C        -3.130488        -0.395634         0.313034
 C        -2.016488        -1.153879         1.030506
 C        -0.714444        -1.319755         0.157527
 C        -0.227719        -0.025283        -0.385544
 O         0.582195         0.153006        -1.360347
 O        -0.757912         1.154589         0.074518
 C        -1.456139         1.364607         1.363165
 H        -3.713730         1.024054         3.121429
 H        -3.973276        -0.687811         2.909910
 H        -2.585306        -0.118412         3.792052
 H        -4.188396        -0.624489         0.588773
 H        -2.980002         0.147269        -0.696036
 H        -2.127337        -2.183472         1.465162
 H         0.109702        -1.681787         0.816373
 H        -0.898549        -2.079469        -0.592996
 H        -0.873266         1.652590         2.342256
 H        -2.115779         2.187968         1.210758
