19
Iteration:  4327charge 0 multiplicity 1
 C        -3.117245         0.127144         2.954611
 C        -2.565247         0.060898         1.491229
 C        -3.370026        -0.375713         0.307366
 C        -2.069017        -1.227901         0.873129
 C        -0.686727        -1.177462         0.271362
 C        -0.129520         0.113581        -0.386329
 O         0.638011         0.063703        -1.384054
 O        -0.712539         1.297284         0.140239
 C        -1.473911         1.146183         1.442745
 H        -4.183806         0.095560         2.768340
 H        -2.774610        -0.736751         3.576927
 H        -2.856793         1.079801         3.449782
 H        -4.323986        -0.753749         0.701551
 H        -3.353480         0.080600        -0.633567
 H        -2.363445        -2.235808         1.284825
 H         0.092207        -1.397010         1.126829
 H        -0.531348        -2.005637        -0.437524
 H        -0.619069         0.944008         2.038302
 H        -1.710105         2.193309         1.459637
