19
Iteration:  2879
 C        -3.169435        -0.044962         2.856631
 C        -2.565458         0.102632         1.482729
 C        -3.159060        -0.648990         0.386390
 C        -1.845797        -1.163819         1.120673
 C        -0.448344        -0.982042         0.545751
 C        -0.187648         0.146773        -0.340559
 O         0.417879         0.024782        -1.400297
 O        -0.819262         1.295812        -0.073934
 C        -1.644387         1.343341         1.179230
 H        -4.070529         0.501602         3.076486
 H        -3.274927        -1.146962         2.865645
 H        -2.423786         0.195997         3.706099
 H        -4.023441        -1.237053         0.555710
 H        -3.096501        -0.281004        -0.705823
 H        -2.062268        -2.058209         1.729494
 H         0.187643        -0.995644         1.389152
 H        -0.110584        -1.827653        -0.051574
 H        -0.961686         1.544216         2.100371
 H        -2.265979         2.183002         1.029438
