19
Iteration:  2349charge 0 multiplicity 1
 C        -2.993114         0.237095         2.999666
 C        -2.540295         0.040191         1.530257
 C        -3.328402        -0.757684         0.457184
 C        -1.928294        -1.224305         1.013351
 C        -0.583046        -1.177769         0.334728
 C        -0.148464         0.098861        -0.388519
 O         0.770355         0.308965        -1.188564
 O        -0.971567         1.161378        -0.204001
 C        -1.756229         1.279013         1.147156
 H        -3.425071         1.264588         3.173983
 H        -3.855117        -0.350513         3.359184
 H        -2.162213         0.108943         3.689986
 H        -4.098378        -1.406241         0.773755
 H        -3.277688        -0.408463        -0.584619
 H        -2.011595        -2.068434         1.683261
 H         0.118278        -1.308539         1.260521
 H        -0.353774        -2.033588        -0.361606
 H        -0.949422         1.477884         1.821846
 H        -2.193519         2.294412         1.215130
