19
Iteration:  2083
 C        -3.233322         0.039489         2.873864
 C        -2.443645         0.104489         1.539327
 C        -3.051754        -0.674438         0.261421
 C        -1.862517        -1.170905         1.130168
 C        -0.432591        -1.036615         0.636432
 C        -0.239478         0.080285        -0.353966
 O         0.289602         0.047527        -1.469113
 O        -0.828934         1.293448        -0.061447
 C        -1.604053         1.340872         1.223331
 H        -3.492970         0.995309         3.277620
 H        -4.116523        -0.546755         2.639589
 H        -2.725138        -0.495267         3.676866
 H        -4.003150        -1.280141         0.139859
 H        -2.632581        -0.275403        -0.634675
 H        -1.913459        -2.109251         1.767619
 H         0.297953        -0.566847         1.390745
 H        -0.065106        -1.982831         0.313427
 H        -0.789643         1.449758         1.950785
 H        -2.292144         2.197449         1.117214
