19
Iteration:  1508charge 0 multiplicity 1
 C        -3.093181         0.316166         2.982301
 C        -2.476463        -0.000415         1.609273
 C        -3.124242        -0.555900         0.370778
 C        -1.884086        -1.282954         0.924209
 C        -0.463720        -1.136678         0.420571
 C        -0.171872         0.149203        -0.294403
 O         0.546919         0.099289        -1.251314
 O        -1.018441         1.145636        -0.135416
 C        -1.682422         1.256665         1.143642
 H        -3.355575         1.395154         3.062462
 H        -4.046031        -0.166323         3.194668
 H        -2.466875         0.130601         3.840898
 H        -4.046506        -1.081806         0.525699
 H        -3.059146        -0.245163        -0.693997
 H        -2.100789        -2.173215         1.484680
 H         0.123277        -1.518861         1.387029
 H        -0.156338        -1.864559        -0.367007
 H        -0.922092         1.674946         1.815536
 H        -2.437941         2.010226         0.943541
