19
Iteration:  4860charge 0 multiplicity 1
 C        -3.323377         0.100879         2.831048
 C        -2.377672         0.054394         1.651088
 C        -3.055690        -0.259273         0.280964
 C        -2.008041        -1.219743         0.960475
 C        -0.578320        -1.207236         0.421029
 C        -0.195975         0.047167        -0.393631
 O         0.257737         0.055769        -1.528634
 O        -0.711232         1.214694         0.157705
 C        -1.338343         1.210696         1.412099
 H        -3.816522         1.177927         2.731100
 H        -4.119268        -0.634170         2.574313
 H        -2.907208        -0.099675         3.864780
 H        -4.074205        -0.518124         0.136497
 H        -2.653558         0.363945        -0.550421
 H        -2.393187        -2.180327         1.272011
 H         0.168675        -1.222907         1.289439
 H        -0.396022        -2.107200        -0.174378
 H        -0.669697         1.199199         2.260260
 H        -2.114415         2.005790         1.459221
