19
Iteration:  3888
 C        -3.134170         0.247222         2.934848
 C        -2.457864         0.130841         1.541653
 C        -3.125808        -0.389641         0.277871
 C        -2.099375        -1.189096         0.892540
 C        -0.815553        -1.308006         0.148075
 C        -0.285198         0.034566        -0.382701
 O         0.528294         0.117164        -1.233701
 O        -0.731419         1.203261         0.127119
 C        -1.346557         1.169952         1.398479
 H        -3.618918        -0.673058         3.352722
 H        -2.339094         0.231805         3.664546
 H        -3.877401         1.053078         3.058126
 H        -4.168714        -0.564240         0.242998
 H        -2.746434         0.153315        -0.618216
 H        -2.284702        -2.149358         1.417202
 H        -0.126529        -1.767152         0.878839
 H        -0.813330        -1.979542        -0.752998
 H        -0.519059         1.111719         2.126125
 H        -1.842661         2.144776         1.495554
