19
Iteration:  4522charge 0 multiplicity 1
 C        -3.369023        -0.002675         2.850713
 C        -2.437500         0.181837         1.555112
 C        -3.101427        -0.368416         0.275766
 C        -2.015983        -1.116439         1.060868
 C        -0.572274        -1.158272         0.332528
 C        -0.180321         0.056782        -0.372292
 O         0.310784         0.012894        -1.482401
 O        -0.698987         1.251394         0.093562
 C        -1.351641         1.224840         1.467772
 H        -4.025148         0.894411         3.003617
 H        -3.874274        -0.941752         2.507966
 H        -2.556100        -0.351116         3.601116
 H        -4.103198        -0.555095         0.562147
 H        -3.045610         0.087803        -0.747896
 H        -2.168809        -2.126088         1.570217
 H         0.203367        -1.370192         1.021781
 H        -0.612713        -2.029788        -0.314898
 H        -0.594971         1.071460         2.242065
 H        -1.438028         2.321169         1.612877
