19
Iteration:   957charge 0 multiplicity 1
 C        -2.295415         0.355976         2.807308
 C        -2.498934         0.089192         1.325012
 C        -3.280029        -1.152348         0.982367
 C        -1.793989        -1.181160         0.870896
 C        -1.235751        -0.851905        -0.506837
 C        -0.268563         0.225161        -0.165836
 O         0.917509        -0.118774        -0.222523
 O        -0.793098         1.407229         0.187278
 C        -2.220899         1.207716         0.373465
 H        -2.869847         1.301907         3.058718
 H        -2.681224        -0.409344         3.552269
 H        -1.161998         0.594446         2.854202
 H        -3.706914        -1.641829         1.914495
 H        -3.920787        -1.067711         0.116461
 H        -1.067556        -1.741585         1.579111
 H        -0.930779        -1.730706        -0.930877
 H        -2.063356        -0.482168        -1.028024
 H        -2.549810         2.119907         0.729915
 H        -2.662621         1.164085        -0.588765
