19
Iteration:  4373charge 0 multiplicity 1
 C        -3.192405         0.161804         2.836701
 C        -2.415002         0.082730         1.552833
 C        -3.075605        -0.325565         0.297832
 C        -2.034106        -1.221154         0.916565
 C        -0.651027        -1.305056         0.278715
 C        -0.260698         0.026770        -0.398666
 O         0.452099         0.137266        -1.361962
 O        -0.802410         1.222485         0.183916
 C        -1.447282         1.207918         1.473689
 H        -4.228671         0.480969         2.584222
 H        -3.041408        -0.869248         3.236098
 H        -2.612680         0.879174         3.430046
 H        -4.084042        -0.600941         0.316572
 H        -2.683332         0.076504        -0.612940
 H        -2.580206        -1.974830         1.440988
 H         0.274309        -1.679053         0.864357
 H        -0.659625        -1.938203        -0.615595
 H        -0.556419         1.236585         2.128979
 H        -2.073418         2.141101         1.476005
