19
Iteration:  2654charge 0 multiplicity 1
 C        -3.221271         0.241829         2.841201
 C        -2.467245         0.103152         1.566812
 C        -3.011754        -0.692844         0.413775
 C        -1.799772        -1.226042         1.177763
 C        -0.544457        -1.235155         0.345602
 C        -0.273010         0.042969        -0.434483
 O         0.539613         0.231255        -1.338570
 O        -0.942348         1.224943        -0.007152
 C        -1.651646         1.308704         1.219417
 H        -3.889811         1.141687         2.691800
 H        -3.987617        -0.528743         2.944864
 H        -2.556990         0.149924         3.668344
 H        -3.926315        -1.271172         0.544452
 H        -2.990179        -0.237782        -0.518562
 H        -1.946137        -2.179959         1.746282
 H         0.338545        -1.434431         0.982697
 H        -0.572548        -2.051143        -0.381942
 H        -0.947363         1.344083         2.058456
 H        -2.209585         2.299577         1.119377
