19
Iteration:   221
 C        -2.920512         0.179963         3.068399
 C        -2.466307         0.094014         1.610070
 C        -3.170263        -0.319123         0.278267
 C        -2.119408        -1.196570         0.872693
 C        -0.804206        -1.295953         0.139378
 C        -0.163482         0.035286        -0.291039
 O         0.807089         0.139987        -1.064337
 O        -0.891559         1.161880        -0.032223
 C        -1.687149         1.200968         1.196559
 H        -3.773580        -0.405471         3.225846
 H        -2.101169        -0.264596         3.708822
 H        -3.082564         1.237699         3.402846
 H        -4.148419        -0.788369         0.339771
 H        -3.086237         0.336174        -0.598940
 H        -2.610277        -2.257552         1.162771
 H        -0.084388        -2.034088         0.641958
 H        -1.060192        -1.671298        -0.838116
 H        -1.039320         1.690637         1.939894
 H        -2.438125         1.980072         0.963525
