19
Iteration:  1433
 C        -3.258276         0.281409         2.867829
 C        -2.428726         0.061849         1.552294
 C        -3.107506        -0.702491         0.424785
 C        -1.851977        -1.274442         1.162877
 C        -0.565659        -1.205006         0.329734
 C        -0.229089         0.105548        -0.382849
 O         0.495861         0.042641        -1.359052
 O        -0.810227         1.384514        -0.037861
 C        -1.616218         1.264367         1.190926
 H        -4.282402         0.749119         2.807544
 H        -3.432160        -0.643546         3.447157
 H        -2.680621         1.004563         3.459244
 H        -4.088100        -1.079278         0.716079
 H        -2.966353        -0.368090        -0.600215
 H        -2.038295        -2.104167         1.833038
 H         0.288624        -1.416111         1.014498
 H        -0.447895        -1.988551        -0.445704
 H        -1.013212         1.633318         2.133878
 H        -2.378147         2.041341         1.118027
