19
Iteration:   873
 C        -2.133310         0.127597         2.870575
 C        -2.514300         0.086209         1.450486
 C        -3.563144        -0.857061         0.846418
 C        -2.050744        -1.249746         0.906110
 C        -1.040706        -1.052596        -0.227654
 C        -0.179079         0.226082        -0.222698
 O         0.980608         0.176836        -0.280816
 O        -0.809260         1.396369        -0.050101
 C        -2.204374         1.219680         0.413237
 H        -2.814003         0.385683         3.645633
 H        -1.753193        -0.862983         3.075026
 H        -1.336066         0.746438         3.060253
 H        -4.245156        -1.425683         1.523123
 H        -3.998156        -0.685456        -0.080972
 H        -1.810957        -2.027036         1.660894
 H        -0.494169        -2.025053        -0.108643
 H        -1.556745        -1.284408        -1.246920
 H        -2.608441         2.248551         0.774863
 H        -2.645855         0.810479        -0.524257
