19
Iteration:   487
 C        -3.312094         0.186804         2.662050
 C        -2.426262         0.112927         1.497411
 C        -2.936864        -0.635404         0.224802
 C        -1.926645        -1.264687         1.165709
 C        -0.499328        -1.116873         0.635754
 C        -0.378288         0.082747        -0.393221
 O         0.204147         0.090111        -1.506774
 O        -0.773470         1.310063         0.082223
 C        -1.372044         1.217674         1.394685
 H        -4.364268         0.110926         2.452066
 H        -2.984266        -0.608714         3.368044
 H        -3.130734         1.019977         3.351436
 H        -3.982830        -0.982966         0.186474
 H        -2.453076        -0.230606        -0.735132
 H        -2.301790        -2.078642         1.711887
 H         0.262705        -0.881864         1.296015
 H        -0.105897        -1.984054         0.075014
 H        -0.571870         1.053714         2.126694
 H        -1.813354         2.220034         1.594117
