19
Iteration:  3990
 C        -2.995215         0.198476         2.861804
 C        -2.502257         0.078522         1.486936
 C        -3.179951        -0.389596         0.179013
 C        -2.103908        -1.250520         0.793053
 C        -0.726117        -1.343719         0.230210
 C        -0.288886         0.058952        -0.258954
 O         0.401839         0.050593        -1.261923
 O        -0.617056         1.307310         0.184655
 C        -1.421006         1.268990         1.425332
 H        -3.989545        -0.210177         3.102676
 H        -2.346804        -0.264206         3.658926
 H        -3.074501         1.181798         3.378878
 H        -4.211081        -0.795371         0.433924
 H        -3.088225         0.320371        -0.629521
 H        -2.451932        -2.098411         1.367600
 H         0.077770        -1.643384         0.994046
 H        -0.678401        -1.957902        -0.646734
 H        -0.863951         1.210158         2.374760
 H        -2.080457         2.114079         1.477637
