19
Iteration:   953
 C        -2.266284         0.378864         2.782238
 C        -2.471757         0.084674         1.389227
 C        -3.271216        -1.154318         0.952140
 C        -1.822305        -1.206406         0.874307
 C        -1.244726        -0.851030        -0.502948
 C        -0.234328         0.213199        -0.157532
 O         0.892840        -0.108945        -0.199575
 O        -0.810397         1.408570         0.175312
 C        -2.215454         1.222221         0.375864
 H        -2.915624         1.242146         3.021326
 H        -2.511026        -0.400992         3.510968
 H        -1.184518         0.625704         2.913226
 H        -3.676236        -1.653496         1.808029
 H        -3.962655        -1.153948         0.042968
 H        -1.192626        -1.801677         1.526798
 H        -0.887635        -1.818749        -1.004267
 H        -2.069509        -0.424938        -1.122313
 H        -2.553088         2.265550         0.679459
 H        -2.800252         1.114794        -0.613817
