19
Iteration:  4505charge 0 multiplicity 1
 C        -3.312256        -0.013810         2.802005
 C        -2.502808         0.175122         1.587728
 C        -3.107420        -0.327011         0.333746
 C        -1.941014        -1.105042         0.941537
 C        -0.565923        -1.229860         0.453408
 C        -0.247953         0.002003        -0.462615
 O         0.305315         0.090956        -1.530945
 O        -0.673387         1.199511         0.172491
 C        -1.358749         1.243773         1.421738
 H        -3.668798         0.952123         3.205511
 H        -4.266704        -0.528546         2.647433
 H        -2.951617        -0.451512         3.707577
 H        -4.069858        -0.884497         0.382289
 H        -2.698968         0.068169        -0.558827
 H        -2.377044        -1.907538         1.471077
 H         0.095222        -1.363344         1.379272
 H        -0.293554        -2.057420        -0.226918
 H        -0.498746         1.303883         2.200696
 H        -1.710155         2.317669         1.475816
