19
Iteration:  1066
 C        -2.632370         0.214109         2.869594
 C        -2.609458         0.198718         1.377045
 C        -3.408702        -0.873326         0.720416
 C        -1.941399        -1.158186         0.988281
 C        -0.806674        -1.232564         0.079805
 C        -0.125629         0.131055        -0.379284
 O         0.862863         0.190914        -1.034463
 O        -0.673065         1.205996         0.423805
 C        -2.157911         1.375142         0.611799
 H        -3.569579         0.663199         3.309209
 H        -2.352384        -0.750838         3.393933
 H        -1.761850         0.882944         3.283216
 H        -4.005787        -1.543910         1.335736
 H        -3.970616        -0.698398        -0.205846
 H        -1.818669        -1.803057         1.901107
 H        -0.165853        -1.926091         0.489982
 H        -1.086410        -1.788604        -0.785639
 H        -2.181116         2.285164         1.126032
 H        -2.685198         1.514099        -0.383099
