19
Iteration:  3409charge 0 multiplicity 1
 C        -3.252142         0.096139         2.784014
 C        -2.463457         0.235797         1.519169
 C        -3.177043        -0.489435         0.347389
 C        -2.023298        -1.197556         0.929646
 C        -0.634255        -1.164132         0.332701
 C        -0.259019         0.131202        -0.392947
 O         0.429919         0.015558        -1.435001
 O        -0.725183         1.304703         0.170138
 C        -1.332889         1.185180         1.412455
 H        -2.471913        -0.113407         3.619185
 H        -3.742183         1.020885         3.056583
 H        -4.014378        -0.669016         2.807347
 H        -4.188624        -1.001034         0.586948
 H        -3.192562        -0.280443        -0.688101
 H        -2.291165        -2.050957         1.632894
 H        -0.003546        -1.382064         1.279878
 H        -0.346280        -1.991010        -0.440937
 H        -0.561921         0.692126         2.096900
 H        -1.520487         2.131065         1.976898
