19
Iteration:  3845
 C        -3.157720         0.196413         2.949655
 C        -2.449087         0.090571         1.637336
 C        -3.247583        -0.293585         0.359564
 C        -2.140469        -1.202829         0.775154
 C        -0.684517        -1.258803         0.265983
 C        -0.200570        -0.004652        -0.407987
 O         0.500075         0.124001        -1.384109
 O        -0.599602         1.146472         0.155390
 C        -1.462121         1.206773         1.356755
 H        -4.260688         0.024717         2.958307
 H        -2.776785        -0.320984         3.827184
 H        -3.058051         1.269830         3.245201
 H        -4.187906        -0.836200         0.307168
 H        -3.058259         0.185029        -0.614902
 H        -2.405479        -2.206160         1.182348
 H         0.072002        -1.298586         1.120088
 H        -0.573645        -2.156909        -0.398193
 H        -0.861354         1.108952         2.282104
 H        -1.947125         2.131136         1.396505
