19
Iteration:   502
 C        -3.358229         0.187855         2.763797
 C        -2.466382         0.091088         1.473289
 C        -2.864212        -0.551967         0.196842
 C        -1.818771        -1.245868         1.023308
 C        -0.404253        -1.072493         0.565653
 C        -0.295249         0.080027        -0.330896
 O         0.038224        -0.016242        -1.504446
 O        -0.681478         1.271494         0.165423
 C        -1.462413         1.268364         1.372557
 H        -4.493940         0.427395         2.600403
 H        -3.385470        -0.674136         3.421908
 H        -3.116579         1.089601         3.323197
 H        -3.867723        -0.962847         0.240760
 H        -2.745885        -0.244873        -0.812368
 H        -1.939118        -2.247322         1.579253
 H         0.110526        -0.877290         1.539958
 H        -0.050885        -1.980146         0.069516
 H        -0.840580         1.187442         2.273343
 H        -2.111110         2.149162         1.294434
