19
Iteration:  2565charge 0 multiplicity 1
 C        -3.213449         0.050087         2.759768
 C        -2.551327         0.098597         1.409044
 C        -2.975245        -0.655411         0.201381
 C        -1.866878        -1.219872         1.090761
 C        -0.443449        -1.115545         0.657738
 C        -0.346681         0.095703        -0.338535
 O         0.143536        -0.021132        -1.418616
 O        -0.730241         1.412752         0.040896
 C        -1.421763         1.400758         1.308742
 H        -4.110061         0.580603         3.150869
 H        -3.520564        -0.925103         3.131125
 H        -2.450161         0.336927         3.456772
 H        -3.865301        -1.289667         0.289800
 H        -2.937053        -0.337430        -0.829876
 H        -2.139950        -2.088968         1.675781
 H         0.195226        -1.013332         1.539338
 H        -0.137572        -1.939760         0.073514
 H        -0.623670         1.242875         2.038832
 H        -1.970417         2.359849         1.328338
