19
Iteration:  3019charge 0 multiplicity 1
 C        -3.150173         0.122619         2.815329
 C        -2.474560        -0.009246         1.519155
 C        -3.114828        -0.703100         0.344157
 C        -1.848669        -1.180158         1.027703
 C        -0.416982        -1.072110         0.495919
 C        -0.221736         0.110945        -0.348583
 O         0.316138         0.081542        -1.402279
 O        -0.769810         1.293289         0.100421
 C        -1.713376         1.343709         1.189649
 H        -4.179075         0.429138         2.637877
 H        -3.009309        -0.840612         3.340372
 H        -2.678351         0.891595         3.441225
 H        -4.088481        -1.252417         0.434661
 H        -3.034575        -0.261684        -0.626059
 H        -1.895619        -2.144235         1.553319
 H         0.268330        -0.945761         1.422296
 H        -0.055643        -1.939409        -0.134456
 H        -1.129925         1.588135         2.113949
 H        -2.420368         2.164161         1.010143
