19
Iteration:  3695
 C        -3.320318         0.142840         2.816115
 C        -2.402298         0.132225         1.575120
 C        -3.024252        -0.351692         0.244446
 C        -2.085052        -1.165879         1.021654
 C        -0.802303        -1.249067         0.181027
 C        -0.289847        -0.008943        -0.430218
 O         0.334569         0.081826        -1.466449
 O        -0.547721         1.156151         0.277577
 C        -1.255047         1.269043         1.508935
 H        -3.429871        -0.824898         3.351018
 H        -3.034633         0.867548         3.613458
 H        -4.364207         0.449831         2.628322
 H        -4.171146        -0.312831         0.247909
 H        -2.711836         0.101381        -0.669290
 H        -2.355931        -2.084366         1.584353
 H         0.014572        -1.545334         0.815848
 H        -0.765429        -1.998736        -0.581157
 H        -0.591742         1.087532         2.363160
 H        -1.785182         2.263764         1.550633
