19
Iteration:  1327charge 0 multiplicity 1
 C        -3.281963         0.307988         2.813012
 C        -2.488053         0.112098         1.457582
 C        -3.050222        -0.787147         0.436374
 C        -1.778857        -1.123867         1.206861
 C        -0.523463        -1.234847         0.375321
 C        -0.176390         0.057400        -0.361631
 O         0.287630         0.168537        -1.486827
 O        -0.622768         1.218160         0.177503
 C        -1.689094         1.292071         1.146983
 H        -3.554424         1.346480         2.994385
 H        -4.213770        -0.278927         2.786835
 H        -2.672119        -0.084826         3.657137
 H        -3.988040        -1.240896         0.786376
 H        -3.048245        -0.437059        -0.564425
 H        -2.013929        -2.016888         1.815255
 H         0.398976        -1.451628         1.060052
 H        -0.627836        -2.128421        -0.328694
 H        -1.435013         1.639633         2.101666
 H        -2.381543         2.021544         0.631779
