19
Iteration:  4677
 C        -3.038364         0.131613         2.964880
 C        -2.491547         0.045579         1.583768
 C        -3.220211        -0.276231         0.282900
 C        -2.091585        -1.192823         0.885882
 C        -0.663705        -1.227616         0.299136
 C        -0.189656         0.035736        -0.478835
 O         0.621902         0.162918        -1.301135
 O        -0.791146         1.166968         0.067482
 C        -1.570273         1.120933         1.393661
 H        -3.298468         1.210389         3.320488
 H        -4.033371        -0.284194         3.277045
 H        -2.285413        -0.066122         3.814009
 H        -4.143917        -0.875769         0.286871
 H        -3.135930         0.412247        -0.540338
 H        -2.422559        -2.136021         1.402861
 H        -0.041429        -1.508589         1.142410
 H        -0.601265        -2.079888        -0.371491
 H        -0.781881         1.375834         2.049465
 H        -2.120695         2.062090         1.063216
