19
Iteration:  4870
 C        -3.370196         0.087511         2.858750
 C        -2.398868         0.005462         1.656415
 C        -2.957276        -0.162444         0.324106
 C        -2.016274        -1.217390         0.954560
 C        -0.528087        -1.248569         0.413560
 C        -0.283138         0.067544        -0.420160
 O         0.288084         0.053711        -1.513268
 O        -0.698582         1.187066         0.126550
 C        -1.408470         1.180810         1.410569
 H        -3.971756         1.160515         2.748788
 H        -4.177041        -0.695216         2.659870
 H        -3.030894        -0.022146         3.961479
 H        -4.005442        -0.380638         0.356180
 H        -2.589990         0.274131        -0.643626
 H        -2.441266        -2.114445         1.429766
 H         0.264131        -1.298930         1.201366
 H        -0.247866        -1.913779        -0.373965
 H        -0.591602         1.404706         2.044475
 H        -1.854646         2.207805         1.315306
