19
Iteration:   218
 C        -2.919642         0.184542         3.037017
 C        -2.467421         0.100477         1.610940
 C        -3.158450        -0.322728         0.259041
 C        -2.132341        -1.212762         0.847163
 C        -0.783943        -1.309410         0.153007
 C        -0.164243         0.040676        -0.282584
 O         0.774603         0.134209        -1.069188
 O        -0.890791         1.167028        -0.023608
 C        -1.662535         1.210129         1.218535
 H        -3.809358        -0.529199         3.371567
 H        -2.067463        -0.180961         3.637311
 H        -3.135182         1.216628         3.406323
 H        -4.142438        -0.803527         0.406601
 H        -3.154204         0.261716        -0.606623
 H        -2.582324        -2.102692         1.185381
 H        -0.141316        -2.014697         0.702247
 H        -0.989957        -1.708908        -0.855055
 H        -1.023703         1.774911         1.980398
 H        -2.384285         2.011198         1.032384
