19
Iteration:  3569
 C        -3.239980         0.203186         3.019941
 C        -2.464158         0.045841         1.701357
 C        -3.099170        -0.200291         0.362244
 C        -2.109181        -1.182663         0.917237
 C        -0.762231        -1.310042         0.148987
 C        -0.185219         0.011823        -0.524828
 O         0.658601         0.192617        -1.363920
 O        -0.764083         1.047672         0.125745
 C        -1.489499         1.151534         1.331573
 H        -4.258785         0.438846         2.705118
 H        -3.210702        -0.647503         3.753560
 H        -2.943038         1.149997         3.568104
 H        -4.203326        -0.481878         0.498690
 H        -2.790039         0.498014        -0.429861
 H        -2.457641        -2.171014         1.220884
 H         0.074860        -1.294054         0.929207
 H        -0.680414        -2.256825        -0.441585
 H        -0.566437         1.136191         2.028663
 H        -1.839428         2.180964         1.384199
