19
Iteration:  3840
 C        -3.161691         0.145500         2.961789
 C        -2.437032         0.098018         1.582917
 C        -3.225214        -0.330020         0.354261
 C        -2.162845        -1.184805         0.824104
 C        -0.734988        -1.227889         0.293785
 C        -0.223756        -0.007598        -0.415007
 O         0.517703         0.105236        -1.410586
 O        -0.576516         1.174884         0.153945
 C        -1.434462         1.229850         1.374692
 H        -4.247608         0.056542         2.921838
 H        -2.917422        -0.488407         3.849703
 H        -3.168467         1.210776         3.215512
 H        -4.157805        -0.922365         0.298223
 H        -3.121540         0.225705        -0.575006
 H        -2.434245        -2.190943         1.179733
 H        -0.027582        -1.304667         1.096281
 H        -0.532587        -2.104200        -0.307305
 H        -0.681213         1.133955         2.179604
 H        -1.963204         2.260372         1.412842
