19
Iteration:  3742charge 0 multiplicity 1
 C        -3.265241         0.328089         2.863418
 C        -2.448462         0.040917         1.551102
 C        -3.214695        -0.299500         0.256627
 C        -2.093136        -1.250340         0.803438
 C        -0.619687        -1.231347         0.315019
 C        -0.244006         0.084934        -0.390802
 O         0.333454         0.081640        -1.480582
 O        -0.592725         1.178966         0.247199
 C        -1.271846         1.079665         1.562883
 H        -3.757773        -0.512725         3.335207
 H        -2.724930         0.893084         3.692684
 H        -4.066714         1.032496         2.562182
 H        -4.123980        -0.796796         0.480841
 H        -3.223926         0.006543        -0.843655
 H        -2.273434        -2.261948         1.102101
 H         0.006983        -1.472979         1.183033
 H        -0.387079        -2.021308        -0.391646
 H        -0.609855         0.766113         2.365841
 H        -1.565302         2.204180         1.592670
