19
Iteration:  2430charge 0 multiplicity 1
 C        -3.265931         0.297679         2.976155
 C        -2.523122         0.023189         1.591297
 C        -3.142707        -0.693612         0.488821
 C        -1.793117        -1.165706         1.069190
 C        -0.446979        -1.244285         0.241166
 C        -0.098698         0.067394        -0.444530
 O         0.583085         0.219982        -1.425794
 O        -0.880780         1.172576         0.083616
 C        -1.777609         1.299036         1.175179
 H        -3.981577         1.011347         2.697657
 H        -3.649601        -0.635931         3.368858
 H        -2.504584         0.787354         3.621574
 H        -4.122581        -1.276674         0.718647
 H        -3.209066        -0.141709        -0.451885
 H        -1.843986        -1.983709         1.821223
 H         0.223978        -1.578071         1.069984
 H        -0.477760        -2.102859        -0.509917
 H        -1.259955         1.777105         2.047661
 H        -2.588751         1.895799         0.806679
