19
Iteration:   482charge 0 multiplicity 1
 C        -3.271081         0.154589         2.659265
 C        -2.405728         0.138199         1.506977
 C        -2.967364        -0.657150         0.246568
 C        -1.948194        -1.226629         1.168304
 C        -0.512652        -1.153337         0.618929
 C        -0.357790         0.081104        -0.429007
 O         0.253684         0.113584        -1.487846
 O        -0.819524         1.318836         0.055918
 C        -1.346747         1.218933         1.398650
 H        -4.361696         0.130470         2.389769
 H        -3.119009        -0.567849         3.527671
 H        -3.336684         1.143307         3.289114
 H        -4.001968        -0.951596         0.097724
 H        -2.607177        -0.333256        -0.670708
 H        -2.300883        -2.029368         1.904820
 H         0.343604        -0.885367         1.425522
 H        -0.201568        -1.995257         0.003230
 H        -0.558510         0.805820         2.124532
 H        -1.856904         2.136499         1.660599
