19
Iteration:     7charge 0 multiplicity 1
 C        -3.237726         0.185415         2.814431
 C        -2.468954         0.131300         1.527939
 C        -3.066458        -0.388376         0.267207
 C        -2.017742        -1.215492         0.917251
 C        -0.596971        -1.293494         0.332618
 C        -0.267582         0.089051        -0.383731
 O         0.447568         0.034150        -1.359362
 O        -0.764815         1.243622         0.181994
 C        -1.414092         1.241205         1.434366
 H        -3.920410        -0.720585         2.774130
 H        -2.535320        -0.006880         3.645953
 H        -3.798174         1.109420         3.017130
 H        -4.110484        -0.808429         0.350849
 H        -2.928638         0.095024        -0.704704
 H        -2.276717        -2.180003         1.364337
 H         0.212174        -1.366363         1.098851
 H        -0.668205        -2.050117        -0.501091
 H        -0.746361         1.387918         2.318145
 H        -2.076840         2.137651         1.441440
