19
Iteration:  2719charge 0 multiplicity 1
 C        -2.977907         0.161060         3.089269
 C        -2.476054         0.046452         1.551633
 C        -3.244213        -0.598269         0.420866
 C        -1.954337        -1.260872         0.844691
 C        -0.542841        -1.154628         0.366767
 C        -0.161180         0.054846        -0.409074
 O         0.724929         0.224164        -1.197301
 O        -0.939116         1.101638        -0.087935
 C        -1.850415         1.392378         1.114495
 H        -3.821411         0.944475         3.019907
 H        -3.409536        -0.759273         3.498819
 H        -2.170678         0.500531         3.812593
 H        -4.079524        -1.131686         0.803611
 H        -3.230960        -0.019290        -0.494795
 H        -2.163309        -2.256352         1.313331
 H         0.097591        -1.073022         1.348109
 H        -0.159536        -2.077313        -0.100422
 H        -1.277510         1.914346         1.863071
 H        -2.632476         2.087418         0.636020
