19
Iteration:   129
 C        -3.354099         0.257051         2.690249
 C        -2.368823         0.061892         1.574800
 C        -2.936150        -0.343883         0.239589
 C        -1.928788        -1.204930         1.015921
 C        -0.557823        -1.232565         0.352296
 C        -0.286066        -0.007614        -0.371739
 O         0.225005         0.156263        -1.484795
 O        -0.723056         1.095594         0.258385
 C        -1.404951         1.211568         1.512608
 H        -3.893278        -0.797296         2.933004
 H        -2.910554         0.654666         3.598420
 H        -4.130805         0.931187         2.306509
 H        -3.984832        -0.563828         0.380784
 H        -2.642143        -0.000170        -0.785205
 H        -2.239274        -2.111772         1.326085
 H         0.258165        -1.388060         1.095432
 H        -0.578571        -2.045023        -0.425600
 H        -0.680770         1.246693         2.435287
 H        -1.951307         2.179002         1.483772
