19
Iteration:  2852
 C        -3.101285         0.137756         2.968805
 C        -2.400546         0.084227         1.568081
 C        -2.998470        -0.612740         0.298377
 C        -1.828216        -1.272682         1.050472
 C        -0.489119        -1.238343         0.374304
 C        -0.299322         0.048765        -0.373590
 O         0.478461         0.137081        -1.267631
 O        -0.881816         1.284385        -0.033300
 C        -1.841328         1.403868         1.164659
 H        -4.144667         0.616154         2.929453
 H        -3.169653        -0.935853         3.147765
 H        -2.558998         0.697727         3.688692
 H        -4.051219        -1.019792         0.332407
 H        -2.815695        -0.230013        -0.649710
 H        -2.145971        -2.096073         1.686893
 H         0.189357        -1.247103         1.321760
 H        -0.207117        -2.074464        -0.335597
 H        -1.284365         1.745669         2.011510
 H        -2.619352         2.228928         0.952733
