19
Iteration:  3773charge 0 multiplicity 1
 C        -3.218787         0.210227         2.903536
 C        -2.464932         0.071516         1.591469
 C        -3.038078        -0.170863         0.266110
 C        -2.046578        -1.261906         0.898371
 C        -0.645688        -1.320610         0.317785
 C        -0.264206         0.023989        -0.427902
 O         0.350972         0.118780        -1.449099
 O        -0.673062         1.107081         0.188661
 C        -1.382254         1.208197         1.445492
 H        -4.139887        -0.356735         2.898288
 H        -2.729611        -0.082056         3.870538
 H        -3.665855         1.217756         2.909899
 H        -4.079739        -0.390443         0.125197
 H        -2.679832         0.242034        -0.730002
 H        -2.407383        -2.149811         1.343041
 H        -0.066492        -1.369063         1.197042
 H        -0.433495        -2.115358        -0.343865
 H        -0.810870         1.059797         2.345278
 H        -1.866212         2.235172         1.497995
