19
Iteration:  2068
 C        -3.193818        -0.072966         2.821043
 C        -2.517454         0.106803         1.525610
 C        -3.028083        -0.590304         0.399337
 C        -1.853762        -1.218456         1.127946
 C        -0.456025        -0.992888         0.620444
 C        -0.338059         0.104231        -0.485934
 O         0.415194        -0.032823        -1.459977
 O        -0.764761         1.320491        -0.023884
 C        -1.672305         1.377231         1.191803
 H        -3.474684         0.959797         3.146044
 H        -4.090587        -0.777489         2.827618
 H        -2.424943        -0.442510         3.550132
 H        -3.993848        -1.038603         0.618877
 H        -2.907444        -0.146490        -0.623890
 H        -2.119240        -1.980811         1.820607
 H         0.018030        -0.714745         1.641777
 H         0.090181        -1.907019         0.173374
 H        -1.202242         1.708078         2.128116
 H        -2.350565         2.208836         0.929778
