19
Iteration:    56charge 0 multiplicity 1
 C        -3.459358         0.130622         2.689020
 C        -2.456542         0.159973         1.454666
 C        -2.994483        -0.423316         0.188860
 C        -1.975183        -1.199598         1.008005
 C        -0.402407        -1.177478         0.610520
 C        -0.259676        -0.000787        -0.406067
 O         0.003798         0.137270        -1.608362
 O        -0.478479         1.180626         0.292489
 C        -1.328493         1.228416         1.488980
 H        -4.380669        -0.257404         2.406594
 H        -2.993386        -0.579997         3.374983
 H        -3.616935         1.048083         3.266605
 H        -3.898301        -0.845708         0.456261
 H        -2.915072        -0.116162        -0.865794
 H        -2.377685        -2.204060         1.345144
 H         0.214720        -0.894521         1.469084
 H        -0.129843        -2.082868         0.094598
 H        -0.788771         1.065115         2.400139
 H        -1.768403         2.206935         1.579539
