19
Iteration:  4012
 C        -3.171019         0.103834         2.830839
 C        -2.478185         0.129640         1.509851
 C        -3.291401        -0.376644         0.355567
 C        -2.125901        -1.164770         0.891842
 C        -0.704299        -1.191706         0.309332
 C        -0.177160         0.051963        -0.397052
 O         0.478730         0.062536        -1.427784
 O        -0.582965         1.249116         0.215789
 C        -1.373674         1.194958         1.380922
 H        -4.229393        -0.147106         2.774393
 H        -2.839295        -0.710392         3.536522
 H        -3.169644         0.965981         3.532260
 H        -4.330855        -0.696574         0.589618
 H        -2.989321        -0.136318        -0.656604
 H        -2.344975        -2.034607         1.517416
 H         0.116636        -1.418573         1.041325
 H        -0.707280        -1.933529        -0.462959
 H        -0.860681         1.036959         2.339971
 H        -1.871152         2.161834         1.485677
