19
Iteration:  3879charge 0 multiplicity 1
 C        -3.064234         0.298419         2.930960
 C        -2.488126         0.032056         1.591419
 C        -3.147384        -0.319845         0.253996
 C        -2.073840        -1.190876         0.839386
 C        -0.752528        -1.323317         0.168389
 C        -0.230333        -0.021058        -0.328323
 O         0.520799         0.147285        -1.300193
 O        -0.778957         1.167040         0.175680
 C        -1.443396         1.192642         1.438279
 H        -3.796463        -0.493225         3.127806
 H        -2.195327         0.361331         3.597936
 H        -3.536007         1.307184         2.893607
 H        -4.113519        -0.755810         0.221620
 H        -2.805478         0.143023        -0.712557
 H        -2.510526        -2.031630         1.286056
 H         0.016285        -1.896335         0.818447
 H        -0.904316        -1.975237        -0.706729
 H        -0.655738         1.128884         2.234455
 H        -1.732962         2.201444         1.395767
