19
Iteration:  2523
 C        -3.402030         0.129215         2.881089
 C        -2.427366         0.046735         1.615297
 C        -2.923305        -0.435910         0.270751
 C        -1.800668        -1.232034         1.029871
 C        -0.246846        -1.130909         0.660272
 C        -0.207365        -0.024920        -0.425600
 O         0.160782         0.052654        -1.581600
 O        -0.833545         1.198207         0.082744
 C        -1.624072         1.334414         1.287403
 H        -4.056810         1.072866         2.655467
 H        -3.980713        -0.809958         3.001806
 H        -2.835224         0.418115         3.777514
 H        -3.878687        -0.917269         0.269440
 H        -2.852582         0.281036        -0.479276
 H        -2.091923        -2.281227         1.070520
 H         0.408989        -0.745402         1.379612
 H         0.096733        -2.060706         0.294284
 H        -0.909751         1.646862         2.129774
 H        -2.323492         2.171448         0.935285
