19
Iteration:  4584charge 0 multiplicity 1
 C        -3.132317         0.374933         2.914125
 C        -2.538681         0.007250         1.624449
 C        -3.259839        -0.446130         0.327388
 C        -2.009691        -1.239550         0.855156
 C        -0.612441        -1.319103         0.201271
 C        -0.131244         0.060239        -0.401421
 O         0.481679         0.229843        -1.382291
 O        -0.719849         1.150448         0.169985
 C        -1.477131         1.140530         1.414774
 H        -4.027349         0.957980         2.897987
 H        -3.499111        -0.530485         3.348402
 H        -2.532648         0.816610         3.647844
 H        -4.262750        -0.895721         0.385618
 H        -3.221699         0.314525        -0.522306
 H        -2.357598        -2.178168         1.387172
 H         0.152391        -1.703508         0.969094
 H        -0.522107        -1.930285        -0.728932
 H        -0.688420         1.085875         2.289790
 H        -2.050797         2.076388         1.379166
