19
Iteration:  4771charge 0 multiplicity 1
 C        -3.299295         0.133407         2.840259
 C        -2.391781         0.062479         1.592146
 C        -3.055008        -0.285917         0.420561
 C        -1.967321        -1.144486         0.944313
 C        -0.643026        -1.294156         0.228427
 C        -0.213296         0.028403        -0.440850
 O         0.392788         0.105475        -1.454106
 O        -0.675033         1.140180         0.235376
 C        -1.512516         1.251755         1.424342
 H        -3.871980         1.047955         2.522808
 H        -4.081675        -0.655805         2.886762
 H        -2.807411         0.379622         3.786752
 H        -4.030347        -0.862931         0.556604
 H        -2.965853         0.337401        -0.491195
 H        -2.229995        -2.133273         1.449061
 H         0.238802        -1.620163         0.846985
 H        -0.724810        -1.950373        -0.657029
 H        -0.810292         1.355876         2.255311
 H        -1.969480         2.186797         1.124448
