19
Iteration:   137
 C        -3.435498         0.190325         2.760664
 C        -2.438418         0.110793         1.572119
 C        -2.994513        -0.315829         0.298794
 C        -1.891116        -1.187880         0.990898
 C        -0.555637        -1.237933         0.346194
 C        -0.258802         0.002340        -0.440493
 O         0.306531         0.109136        -1.477829
 O        -0.680164         1.166907         0.207400
 C        -1.404365         1.187023         1.498177
 H        -3.904456        -0.738908         3.236029
 H        -2.928343         0.701703         3.628393
 H        -4.274620         0.853496         2.459721
 H        -4.007017        -0.697963         0.587548
 H        -2.852938         0.144474        -0.710879
 H        -2.211979        -2.234227         1.255852
 H         0.260352        -1.492930         0.993810
 H        -0.471990        -2.104149        -0.344657
 H        -0.697823         1.047635         2.339941
 H        -1.951588         2.155132         1.450961
