19
Iteration:  1962
 C        -3.286016         0.215908         2.875769
 C        -2.451759         0.076844         1.547768
 C        -3.181521        -0.786839         0.584784
 C        -1.889334        -1.218730         1.154953
 C        -0.621863        -1.131408         0.245778
 C        -0.128454         0.142387        -0.415904
 O         0.699908         0.261865        -1.274074
 O        -1.009569         1.143545        -0.152896
 C        -1.513291         1.290013         1.194757
 H        -4.162074         0.844884         2.710373
 H        -3.697640        -0.768658         3.143697
 H        -2.744925         0.633310         3.742655
 H        -4.128419        -1.070166         0.963647
 H        -3.310250        -0.416534        -0.473212
 H        -1.683441        -1.834672         2.079233
 H         0.111742        -1.588230         0.784284
 H        -0.812531        -1.737240        -0.602180
 H        -0.664395         1.063019         1.859925
 H        -1.845099         2.369539         1.248075
