19
Iteration:  4805
 C        -3.170456         0.164697         2.844278
 C        -2.472472         0.157245         1.487370
 C        -3.098908        -0.499085         0.217295
 C        -2.087217        -1.325670         0.932784
 C        -0.699310        -1.219070         0.388377
 C        -0.245980         0.113210        -0.394370
 O         0.304732         0.134422        -1.476896
 O        -0.529254         1.275656         0.248169
 C        -1.407012         1.194520         1.422767
 H        -3.615092         1.185700         2.831623
 H        -3.976767        -0.458241         3.191127
 H        -2.509681         0.276790         3.701519
 H        -4.074836        -0.973984         0.376901
 H        -3.005306        -0.166138        -0.849863
 H        -2.507317        -2.136157         1.574393
 H        -0.032451        -1.506513         1.255791
 H        -0.610632        -2.060555        -0.285771
 H        -0.790312         1.076121         2.352453
 H        -1.865845         2.211895         1.610079
