19
Iteration:  3218
 C        -3.174940         0.086223         2.910546
 C        -2.523781         0.081619         1.553075
 C        -3.231179        -0.611251         0.431793
 C        -1.948279        -1.165726         0.995603
 C        -0.558932        -1.147356         0.347081
 C        -0.189826         0.149659        -0.401091
 O         0.558733         0.088762        -1.390228
 O        -0.755064         1.326625        -0.006107
 C        -1.609841         1.243619         1.269020
 H        -3.202669         1.021799         3.347669
 H        -4.215783        -0.238513         2.747446
 H        -2.720667        -0.721469         3.506372
 H        -4.179175        -1.156839         0.511752
 H        -2.978207        -0.167691        -0.516962
 H        -2.214443        -1.986379         1.706847
 H         0.050692        -1.259921         1.301710
 H        -0.282504        -2.010367        -0.216933
 H        -0.913498         1.106252         2.141137
 H        -2.119071         2.170768         1.416836
