19
Iteration:  1099charge 0 multiplicity 1
 C        -2.935602         0.433705         2.973096
 C        -2.496879         0.095692         1.459000
 C        -3.293659        -0.918902         0.628277
 C        -1.929098        -1.327940         1.013272
 C        -0.800640        -1.222498         0.033823
 C        -0.187041         0.148483        -0.315817
 O         0.649914         0.254640        -1.167604
 O        -0.549654         1.220624         0.369992
 C        -1.869674         1.254759         0.760194
 H        -3.931461         0.959845         2.975036
 H        -3.008759        -0.333524         3.792673
 H        -2.200606         1.262809         3.270476
 H        -4.076992        -1.512184         1.016802
 H        -3.433705        -0.630590        -0.433026
 H        -1.907640        -1.981892         1.874907
 H         0.008231        -1.800823         0.379911
 H        -1.103057        -1.584794        -0.927019
 H        -2.046111         2.157584         1.288180
 H        -2.496476         1.338044        -0.192134
