19
Iteration:  2494
 C        -3.342850         0.163451         2.705324
 C        -2.461150         0.136542         1.491283
 C        -2.938347        -0.703055         0.343489
 C        -1.803979        -1.185082         1.197549
 C        -0.478144        -1.076074         0.520008
 C        -0.231382         0.109344        -0.414986
 O         0.278564         0.054306        -1.517839
 O        -0.918749         1.271324         0.049646
 C        -1.469199         1.266982         1.386719
 H        -3.920180         1.058124         2.855811
 H        -4.108225        -0.610964         2.856503
 H        -2.656327         0.132973         3.582060
 H        -3.955965        -1.153379         0.475967
 H        -2.800640        -0.364423        -0.643733
 H        -1.859680        -2.107424         1.822831
 H         0.407958        -1.031921         1.243330
 H        -0.333515        -2.017412        -0.106061
 H        -0.691541         1.124253         2.116207
 H        -1.909535         2.255014         1.413637
