19
Iteration:  1959
 C        -3.282837         0.217822         2.866441
 C        -2.436675         0.097927         1.556791
 C        -3.184319        -0.797181         0.560169
 C        -1.875881        -1.190708         1.181507
 C        -0.640025        -1.139735         0.254701
 C        -0.148846         0.127973        -0.438302
 O         0.710098         0.271873        -1.268769
 O        -1.003913         1.135819        -0.145979
 C        -1.540292         1.300196         1.194038
 H        -4.148596         0.826959         2.806297
 H        -3.684212        -0.761334         3.146789
 H        -2.685650         0.523833         3.738264
 H        -4.172374        -1.123080         0.897425
 H        -3.322169        -0.406241        -0.438931
 H        -1.656907        -1.903946         1.920884
 H         0.143990        -1.693011         0.840003
 H        -0.774557        -1.832774        -0.626654
 H        -0.688299         1.129459         1.856326
 H        -1.763233         2.364096         1.271745
