19
Iteration:  2031
 C        -3.075905         0.113083         2.904904
 C        -2.528379         0.114791         1.485686
 C        -3.074732        -0.663640         0.358388
 C        -1.886912        -1.194544         1.044763
 C        -0.468609        -1.217036         0.523103
 C        -0.156108         0.071835        -0.320813
 O         0.432120         0.155307        -1.383334
 O        -0.851886         1.261973        -0.010327
 C        -1.764856         1.320210         1.159761
 H        -3.947000         0.886111         2.889116
 H        -3.553813        -0.715165         3.398492
 H        -2.324831         0.582439         3.552227
 H        -4.025241        -1.243392         0.459048
 H        -3.188981        -0.050192        -0.495237
 H        -2.017765        -2.058784         1.725976
 H         0.358291        -1.427662         1.175628
 H        -0.388348        -1.979721        -0.239165
 H        -1.109812         1.651953         2.004070
 H        -2.382854         2.179330         0.840254
