19
Iteration:  4573
 C        -3.180889         0.331937         2.945484
 C        -2.442416         0.049066         1.508240
 C        -3.165164        -0.363096         0.363913
 C        -2.069429        -1.313157         0.831333
 C        -0.619317        -1.272019         0.238485
 C        -0.170075         0.036007        -0.339250
 O         0.469310         0.246373        -1.428953
 O        -0.765642         1.146983         0.203776
 C        -1.493738         1.107359         1.390207
 H        -3.954506         1.037558         2.707197
 H        -3.447925        -0.491138         3.548777
 H        -2.390607         0.839296         3.421744
 H        -4.113461        -0.896641         0.509895
 H        -2.934539         0.086888        -0.652463
 H        -2.274916        -2.250007         1.420485
 H         0.132846        -1.700684         1.005782
 H        -0.646475        -2.075581        -0.543088
 H        -0.798035         1.153509         2.352454
 H        -1.901312         2.127336         1.455554
