19
Iteration:  3467
 C        -3.227990         0.171867         2.967972
 C        -2.445205         0.089878         1.627888
 C        -3.205736        -0.308428         0.317566
 C        -1.998512        -1.123588         0.876882
 C        -0.570263        -1.321949         0.170611
 C        -0.123812        -0.028929        -0.375306
 O         0.499420         0.122486        -1.426409
 O        -0.788849         1.080520         0.208733
 C        -1.531283         1.289499         1.399045
 H        -2.889130         1.173900         3.313238
 H        -4.349410         0.334865         2.869967
 H        -2.926024        -0.534927         3.757691
 H        -4.201624        -0.580939         0.481243
 H        -2.964318         0.422580        -0.501846
 H        -2.213429        -2.172232         0.990405
 H         0.182299        -1.816657         0.946003
 H        -0.599554        -1.982991        -0.706893
 H        -0.745615         1.469020         2.234899
 H        -2.187184         2.248499         1.171500
