19
Iteration:  1685charge 0 multiplicity 1
 C        -3.268983         0.051007         2.861762
 C        -2.440413         0.090056         1.588975
 C        -2.997471        -0.630010         0.291940
 C        -1.811493        -1.164704         1.114643
 C        -0.471179        -1.105802         0.614368
 C        -0.208072         0.012514        -0.393044
 O         0.312134         0.035360        -1.519721
 O        -0.776800         1.280223        -0.032884
 C        -1.700310         1.421180         1.268948
 H        -3.796395         1.016848         2.925443
 H        -4.041540        -0.717891         2.819351
 H        -2.640320        -0.006311         3.764614
 H        -4.012600        -1.032446         0.482191
 H        -2.754972        -0.178347        -0.696430
 H        -2.055365        -2.107251         1.658936
 H         0.221415        -0.889569         1.401358
 H        -0.164226        -2.083593         0.132377
 H        -1.069357         1.615183         2.135932
 H        -2.240415         2.278937         0.924114
