19
Iteration:  4816charge 0 multiplicity 1
 C        -3.124882         0.217707         2.786662
 C        -2.573551         0.086552         1.428592
 C        -3.159887        -0.548324         0.202436
 C        -2.061597        -1.168864         0.984265
 C        -0.681535        -1.202250         0.406556
 C        -0.235030         0.099182        -0.328981
 O         0.259983         0.108963        -1.467267
 O        -0.534238         1.279078         0.241173
 C        -1.385278         1.148300         1.460430
 H        -3.592319         1.195417         3.058204
 H        -3.783104        -0.639862         2.896768
 H        -2.231771        -0.037275         3.359308
 H        -4.207145        -0.821714         0.227727
 H        -2.798596        -0.077233        -0.742729
 H        -2.247350        -2.045405         1.645460
 H         0.079717        -1.336715         1.228402
 H        -0.485244        -1.942916        -0.350537
 H        -0.687372         0.773971         2.223859
 H        -1.764161         2.176858         1.675982
