19
Iteration:  3541charge 0 multiplicity 1
 C        -3.066888         0.204028         2.971653
 C        -2.502818         0.082691         1.536314
 C        -3.289477        -0.323244         0.299794
 C        -2.111781        -1.203680         0.840230
 C        -0.704958        -1.331390         0.177347
 C        -0.191117         0.045073        -0.322159
 O         0.557088         0.108128        -1.302521
 O        -0.722511         1.206113         0.142130
 C        -1.441800         1.203908         1.378263
 H        -4.042913         0.711828         2.783366
 H        -3.245381        -0.685617         3.537005
 H        -2.523736         0.951901         3.507965
 H        -4.177313        -0.812731         0.488520
 H        -3.091879         0.236899        -0.642679
 H        -2.275184        -2.107205         1.477783
 H         0.052455        -1.674313         0.836417
 H        -0.726560        -1.973141        -0.709097
 H        -0.641645         0.995957         2.053237
 H        -1.735095         2.235798         1.544300
