19
Iteration:   632charge 0 multiplicity 1
 C        -3.313849         0.318425         2.891173
 C        -2.454459        -0.037159         1.646817
 C        -3.018881        -0.594743         0.390555
 C        -1.854962        -1.319508         1.129432
 C        -0.459799        -1.118693         0.398652
 C        -0.232584         0.095142        -0.467212
 O         0.528662         0.239841        -1.346672
 O        -1.022865         1.163256        -0.116931
 C        -1.538011         1.161700         1.233848
 H        -3.440484         1.485206         3.128920
 H        -4.406878         0.207760         2.635987
 H        -2.953050        -0.119187         3.847968
 H        -4.064029        -1.030575         0.321610
 H        -2.652592        -0.046777        -0.466514
 H        -2.115483        -2.319008         1.711166
 H         0.285783        -0.995653         1.160999
 H        -0.143092        -2.129049         0.037863
 H        -0.730484         1.336405         1.984762
 H        -2.167010         2.132020         1.253884
