19
Iteration:  2094
 C        -3.279625         0.143052         2.900857
 C        -2.504520         0.125323         1.507166
 C        -2.911271        -0.711722         0.211788
 C        -1.820709        -1.204509         1.077257
 C        -0.340014        -1.043651         0.624079
 C        -0.232734         0.106433        -0.367422
 O         0.239891         0.056456        -1.458506
 O        -0.938203         1.241048        -0.009822
 C        -1.532102         1.303156         1.236173
 H        -3.566706         1.131516         3.213819
 H        -4.228250        -0.365476         2.726591
 H        -2.729899        -0.384610         3.678207
 H        -3.921021        -1.098077         0.494132
 H        -2.912770        -0.258231        -0.760923
 H        -2.057049        -2.114814         1.716585
 H         0.254478        -1.074314         1.612859
 H        -0.004188        -1.846988         0.004911
 H        -0.936763         1.383031         2.144684
 H        -2.042957         2.288063         1.258366
