19
Iteration:  2555
 C        -3.209982         0.061239         2.826796
 C        -2.466243         0.089614         1.469667
 C        -3.012502        -0.597395         0.165511
 C        -1.824006        -1.204307         1.021377
 C        -0.386885        -1.042974         0.623914
 C        -0.321972         0.097354        -0.305644
 O         0.119415        -0.097757        -1.417044
 O        -0.747713         1.347542         0.088932
 C        -1.519121         1.356472         1.254568
 H        -4.139823         0.730322         2.671651
 H        -3.456053        -0.996497         3.003339
 H        -2.569138         0.380613         3.634852
 H        -4.002147        -1.021729         0.326236
 H        -2.844480        -0.048066        -0.705935
 H        -2.158233        -2.137621         1.472185
 H         0.322299        -0.833773         1.388596
 H        -0.015230        -1.875247         0.089796
 H        -0.889656         1.400552         2.181857
 H        -2.077269         2.319478         1.394228
