19
Iteration:  1315
 C        -3.293336         0.381165         2.834301
 C        -2.531073         0.085866         1.605843
 C        -3.102226        -0.763488         0.378274
 C        -1.785419        -1.178038         1.119902
 C        -0.394002        -1.210258         0.390487
 C        -0.104085         0.032276        -0.391558
 O         0.338352         0.163291        -1.496852
 O        -0.736067         1.161527         0.105352
 C        -1.737875         1.303035         1.248507
 H        -3.581568         1.467050         2.835649
 H        -4.241297        -0.190539         2.831432
 H        -2.772308         0.201772         3.812391
 H        -4.065013        -1.296481         0.620399
 H        -3.040807        -0.328809        -0.576692
 H        -1.875120        -2.043155         1.795902
 H         0.406132        -1.654694         1.058635
 H        -0.516574        -1.907814        -0.520084
 H        -1.005435         1.548456         1.997425
 H        -2.327617         2.235392         1.064022
