19
Iteration:  1195
 C        -3.043496         0.280149         2.885349
 C        -2.438385         0.052698         1.577918
 C        -3.235152        -0.783525         0.425488
 C        -1.908724        -1.282887         1.021257
 C        -0.603761        -1.261543         0.277685
 C        -0.241203         0.096035        -0.309196
 O         0.488781         0.081723        -1.261216
 O        -0.650121         1.347560         0.148149
 C        -1.761825         1.422105         0.981090
 H        -3.566738         1.195624         2.867205
 H        -3.694332        -0.482165         3.244619
 H        -2.285263         0.390631         3.650295
 H        -4.070688        -1.361442         0.762934
 H        -3.354574        -0.256344        -0.564071
 H        -2.057480        -2.109154         1.694303
 H         0.223877        -1.390098         1.052958
 H        -0.555747        -2.116203        -0.472906
 H        -1.491161         2.049920         1.785905
 H        -2.529076         1.971795         0.364772
