19
Iteration:  4224charge 0 multiplicity 1
 C        -3.196540         0.192539         2.886188
 C        -2.521389         0.073844         1.525411
 C        -3.371747        -0.393554         0.427154
 C        -2.184421        -1.268896         0.908563
 C        -0.755171        -1.215424         0.199741
 C        -0.162504         0.062455        -0.466476
 O         0.658835         0.211382        -1.313314
 O        -0.588891         1.267642         0.141171
 C        -1.380062         1.025623         1.382346
 H        -3.090050        -0.825040         3.306378
 H        -2.578387         0.807087         3.508073
 H        -4.202375         0.530644         2.665632
 H        -4.351502        -0.753017         0.792740
 H        -3.448008         0.336086        -0.414998
 H        -2.600595        -2.166493         1.278470
 H         0.016041        -1.353549         0.994242
 H        -0.483429        -2.016158        -0.541664
 H        -0.646074         0.949234         2.217372
 H        -1.625051         2.147665         1.477763
