19
Iteration:  4175
 C        -3.246712         0.110302         2.912497
 C        -2.390457         0.093731         1.506795
 C        -3.033440        -0.231161         0.234996
 C        -2.003852        -1.218780         0.933338
 C        -0.751911        -1.297845         0.208052
 C        -0.322094         0.017115        -0.371447
 O         0.432638         0.107571        -1.320005
 O        -0.691589         1.242883         0.218082
 C        -1.423703         1.186029         1.426704
 H        -3.218739        -0.870249         3.377853
 H        -2.486940         0.648247         3.519970
 H        -4.256548         0.573558         2.741616
 H        -4.069880        -0.507260         0.104552
 H        -2.527409         0.085416        -0.706256
 H        -2.414013        -2.163476         1.416462
 H         0.051483        -1.833760         0.686260
 H        -1.013348        -1.885822        -0.660892
 H        -0.762672         1.282176         2.323800
 H        -1.853131         2.190153         1.508887
