19
Iteration:  1866charge 0 multiplicity 1
 C        -3.043170         0.079155         2.958881
 C        -2.579916         0.113918         1.440936
 C        -3.202650        -0.758754         0.397835
 C        -1.952232        -1.116395         1.028087
 C        -0.607589        -1.078602         0.525901
 C        -0.154361         0.124031        -0.450061
 O         0.634683         0.123146        -1.378242
 O        -0.822862         1.197868         0.003116
 C        -1.738155         1.337827         1.140224
 H        -3.676202         0.921966         3.383472
 H        -3.584059        -0.868819         3.186296
 H        -2.047838         0.048765         3.440381
 H        -4.059980        -1.232574         0.776296
 H        -3.510939        -0.544791        -0.643669
 H        -2.040975        -1.815441         1.901361
 H         0.097500        -0.851238         1.481406
 H        -0.277338        -2.016747         0.085240
 H        -0.964270         1.610973         1.841674
 H        -2.348536         2.236235         0.922055
