19
Iteration:  1192
 C        -3.035359         0.293590         2.847334
 C        -2.445613         0.047768         1.549246
 C        -3.238070        -0.802085         0.441164
 C        -1.890797        -1.257459         1.042542
 C        -0.624547        -1.239224         0.263494
 C        -0.244146         0.091195        -0.286459
 O         0.490763         0.084448        -1.269132
 O        -0.650473         1.333625         0.173597
 C        -1.766609         1.413411         0.971613
 H        -3.572539         1.299178         2.941920
 H        -3.677883        -0.526330         3.229920
 H        -2.225873         0.287859         3.621019
 H        -4.102934        -1.379992         0.814601
 H        -3.375023        -0.311288        -0.559558
 H        -2.064049        -2.121814         1.705320
 H         0.276422        -1.398223         0.973445
 H        -0.597074        -2.089435        -0.472001
 H        -1.500945         2.045059         1.853897
 H        -2.417045         1.977549         0.364472
