19
Iteration:  1747charge 0 multiplicity 1
 C        -3.196385         0.168611         2.823164
 C        -2.436252         0.078131         1.461741
 C        -3.037470        -0.746248         0.310482
 C        -1.891493        -1.295567         1.098048
 C        -0.512964        -1.036810         0.567395
 C        -0.342618         0.127838        -0.373255
 O         0.255806         0.064100        -1.410220
 O        -0.671327         1.322441         0.029880
 C        -1.585514         1.324645         1.214042
 H        -3.938483         1.003477         2.797335
 H        -3.760944        -0.763773         2.938951
 H        -2.599386         0.200466         3.727444
 H        -3.967858        -1.323268         0.404849
 H        -2.833039        -0.567172        -0.718414
 H        -2.003048        -2.238018         1.687542
 H         0.144560        -0.700100         1.423142
 H        -0.007044        -1.920723         0.183586
 H        -0.978989         1.457266         2.162888
 H        -2.141152         2.260246         1.137209
