19
Iteration:  3489
 C        -3.189014         0.116600         2.951103
 C        -2.501028         0.168869         1.608407
 C        -3.213238        -0.381771         0.378984
 C        -2.055776        -1.168979         0.936911
 C        -0.753769        -1.271146         0.185848
 C        -0.200232         0.008983        -0.429458
 O         0.551333         0.112780        -1.349395
 O        -0.607807         1.222991         0.118557
 C        -1.471714         1.216510         1.337860
 H        -3.512704         1.044743         3.430014
 H        -4.183063        -0.332452         2.675025
 H        -2.618579        -0.556958         3.606585
 H        -4.212852        -0.697364         0.487116
 H        -3.047294         0.267714        -0.531268
 H        -2.185001        -2.127387         1.474194
 H         0.099367        -1.600856         0.944025
 H        -0.797452        -2.086726        -0.537976
 H        -0.698701         1.288155         2.178689
 H        -2.075539         2.199584         1.217490
