19
Iteration:  4117
 C        -3.265436         0.166965         2.873808
 C        -2.532274         0.095478         1.532740
 C        -3.239070        -0.408382         0.257904
 C        -2.026042        -1.103380         0.885964
 C        -0.650463        -1.119270         0.395743
 C        -0.168301         0.088552        -0.401674
 O         0.346610         0.085932        -1.510735
 O        -0.533840         1.183582         0.237984
 C        -1.342861         1.063184         1.453896
 H        -4.176779        -0.433844         2.626012
 H        -2.638704        -0.386102         3.536276
 H        -3.539111         1.121882         3.366718
 H        -4.282498        -0.849394         0.147021
 H        -3.066421         0.294831        -0.589036
 H        -2.268341        -1.953780         1.458157
 H         0.055027        -1.266516         1.260268
 H        -0.492082        -1.971493        -0.313151
 H        -0.812928         0.763571         2.313178
 H        -1.844908         2.009934         1.461464
