19
Iteration:  1852charge 0 multiplicity 1
 C        -3.116490         0.084668         2.902784
 C        -2.563604         0.149423         1.512598
 C        -3.219903        -0.729464         0.415096
 C        -1.883749        -1.162543         1.118677
 C        -0.469737        -1.132767         0.455062
 C        -0.207776         0.076891        -0.394419
 O         0.555524         0.093522        -1.324448
 O        -0.837323         1.331965        -0.106097
 C        -1.683573         1.320010         1.144550
 H        -3.858037         0.860312         3.108735
 H        -3.606930        -0.914092         3.049571
 H        -2.340789         0.237560         3.707359
 H        -4.222380        -1.229580         0.741349
 H        -3.091975        -0.346598        -0.571563
 H        -1.971377        -2.074900         1.713041
 H         0.256130        -1.182186         1.235216
 H        -0.335121        -1.999102        -0.180473
 H        -1.088526         1.328645         2.086003
 H        -2.255289         2.281510         1.023862
