19
Iteration:  2498charge 0 multiplicity 1
 C        -3.387169         0.167876         2.753931
 C        -2.461953         0.128819         1.516371
 C        -2.930578        -0.662452         0.347536
 C        -1.792066        -1.179535         1.155874
 C        -0.452058        -1.087305         0.529563
 C        -0.242001         0.091180        -0.403882
 O         0.261117         0.067568        -1.523465
 O        -0.901893         1.238284         0.047535
 C        -1.482804         1.252700         1.365323
 H        -3.914695         1.136432         2.850556
 H        -4.063633        -0.713912         2.794936
 H        -2.627900         0.147188         3.567158
 H        -3.888246        -1.195710         0.381376
 H        -2.734824        -0.248345        -0.736540
 H        -1.845475        -1.992482         1.862598
 H         0.379652        -0.952726         1.244310
 H        -0.253380        -1.981492        -0.056776
 H        -0.648194         1.169245         2.102047
 H        -1.940597         2.240416         1.308681
