19
Iteration:  4241
 C        -3.128812         0.146669         2.945756
 C        -2.483256         0.050957         1.588126
 C        -3.320037        -0.388356         0.327519
 C        -2.157576        -1.237556         0.784059
 C        -0.798292        -1.252219         0.176656
 C        -0.187332         0.115034        -0.434554
 O         0.661812         0.117119        -1.289099
 O        -0.676820         1.242420         0.146562
 C        -1.373640         1.238921         1.405836
 H        -3.352323        -0.805198         3.448365
 H        -2.505574         0.735971         3.705581
 H        -4.111607         0.633430         2.809611
 H        -4.348024        -0.658623         0.521873
 H        -3.192412        -0.161446        -0.701274
 H        -2.261852        -2.130027         1.459971
 H        -0.128906        -1.484814         1.031352
 H        -0.695209        -2.028631        -0.560458
 H        -0.631431         1.026424         2.204791
 H        -1.897980         2.080154         1.722766
