19
Iteration:  3852charge 0 multiplicity 1
 C        -3.153540         0.301723         2.962161
 C        -2.506464         0.033504         1.614388
 C        -3.257521        -0.255585         0.331982
 C        -2.066848        -1.216954         0.769221
 C        -0.613810        -1.304819         0.223929
 C        -0.185220        -0.000768        -0.401016
 O         0.491793         0.135472        -1.365986
 O        -0.668456         1.133846         0.195612
 C        -1.473877         1.135187         1.367670
 H        -4.175952        -0.088399         2.894318
 H        -2.476077        -0.221805         3.681148
 H        -3.003625         1.328115         3.291877
 H        -4.333785        -0.566931         0.525946
 H        -3.025338         0.321294        -0.536319
 H        -2.463194        -2.167161         1.271429
 H        -0.015988        -1.509902         1.069867
 H        -0.504990        -2.118077        -0.522286
 H        -0.868145         1.272215         2.289073
 H        -1.976108         2.165544         1.226415
