19
Iteration:  4545
 C        -3.252351         0.148635         2.856276
 C        -2.362245         0.109936         1.538081
 C        -3.097313        -0.410325         0.287283
 C        -2.069715        -1.227383         0.951851
 C        -0.667583        -1.231952         0.315298
 C        -0.329988         0.096756        -0.444494
 O         0.386407         0.062888        -1.361332
 O        -0.729891         1.296183         0.127835
 C        -1.315740         1.170739         1.462710
 H        -4.132500         0.813016         2.655784
 H        -3.515698        -0.941644         2.912537
 H        -2.522307         0.391674         3.693514
 H        -4.003434        -0.949417         0.056564
 H        -2.828852         0.295487        -0.496401
 H        -2.211198        -2.050811         1.673049
 H         0.160503        -1.392822         0.963021
 H        -0.659821        -2.047174        -0.399462
 H        -0.586370         1.141009         2.301499
 H        -1.830040         2.158437         1.657593
