19
Iteration:  4513
 C        -3.357533        -0.007311         2.819724
 C        -2.441146         0.221525         1.571292
 C        -3.133854        -0.358188         0.302952
 C        -1.990456        -1.114514         1.000481
 C        -0.553541        -1.195936         0.412045
 C        -0.186571         0.055141        -0.411382
 O         0.304999         0.051532        -1.528250
 O        -0.684269         1.190422         0.114732
 C        -1.315544         1.257128         1.465913
 H        -3.957725         0.839297         3.288074
 H        -4.140471        -0.778833         2.495873
 H        -2.772005        -0.480923         3.723206
 H        -4.123923        -0.765539         0.352827
 H        -2.979390         0.172755        -0.642180
 H        -2.214051        -1.960672         1.675299
 H         0.198153        -1.345154         1.169518
 H        -0.513946        -2.022768        -0.300575
 H        -0.572402         1.004055         2.309627
 H        -1.871642         2.214254         1.491594
