19
Iteration:  1851charge 0 multiplicity 1
 C        -3.118589         0.086384         2.901037
 C        -2.561919         0.146949         1.516178
 C        -3.217542        -0.721141         0.419382
 C        -1.881661        -1.173490         1.124915
 C        -0.465071        -1.136658         0.452770
 C        -0.209055         0.076816        -0.391603
 O         0.549356         0.090978        -1.319892
 O        -0.842446         1.334702        -0.108283
 C        -1.676188         1.325151         1.147629
 H        -3.869891         0.848701         3.073984
 H        -3.621645        -0.898357         3.026998
 H        -2.366196         0.259055         3.711773
 H        -4.226580        -1.269671         0.688902
 H        -3.097558        -0.339766        -0.577624
 H        -1.966228        -2.072944         1.719527
 H         0.258332        -1.174930         1.191955
 H        -0.309472        -1.980538        -0.238334
 H        -1.064812         1.333936         2.087635
 H        -2.247467         2.279326         1.000475
