19
Iteration:    87charge 0 multiplicity 1
 C        -3.381996         0.261590         2.636044
 C        -2.460987         0.108870         1.436120
 C        -3.005721        -0.554051         0.143168
 C        -1.945398        -1.236175         1.004329
 C        -0.489494        -1.088608         0.482809
 C        -0.270727         0.150120        -0.321384
 O        -0.065978         0.019437        -1.524156
 O        -0.434879         1.287590         0.368600
 C        -1.318709         1.105048         1.510094
 H        -4.359752        -0.271177         2.476193
 H        -2.919487        -0.184754         3.469573
 H        -3.624267         1.271696         2.891033
 H        -3.962673        -0.991674         0.278220
 H        -2.800121        -0.200294        -0.899466
 H        -2.196294        -2.150464         1.429585
 H         0.335102        -1.262883         1.239147
 H        -0.271033        -1.899393        -0.244894
 H        -0.718173         0.779651         2.369525
 H        -1.759177         2.076118         1.675114
