19
Iteration:  4345
 C        -3.114758         0.185489         2.962266
 C        -2.533788         0.090393         1.526740
 C        -3.239911        -0.495380         0.251623
 C        -2.127838        -1.187502         0.809054
 C        -0.706086        -1.191230         0.291752
 C        -0.241557         0.073051        -0.372531
 O         0.539514         0.168412        -1.308671
 O        -0.704133         1.222425         0.139411
 C        -1.359117         1.129174         1.392902
 H        -4.198807         0.367035         2.953148
 H        -2.755960        -0.744316         3.354419
 H        -2.593686         1.076451         3.321351
 H        -4.284506        -0.910746         0.341104
 H        -2.963654         0.095654        -0.692406
 H        -2.478496        -2.004734         1.445775
 H        -0.027977        -1.366259         1.082502
 H        -0.461272        -2.021379        -0.402045
 H        -0.556214         0.981700         2.224084
 H        -1.930038         2.064684         1.623671
