19
Iteration:  4368charge 0 multiplicity 1
 C        -3.146893         0.157358         2.861298
 C        -2.422556         0.089542         1.530094
 C        -3.098425        -0.304055         0.256857
 C        -2.043799        -1.250132         0.951840
 C        -0.639065        -1.300167         0.274896
 C        -0.300992         0.022452        -0.390034
 O         0.470064         0.163572        -1.340485
 O        -0.786164         1.209962         0.176591
 C        -1.447156         1.227047         1.416441
 H        -4.149945         0.486660         2.656610
 H        -3.041749        -0.819610         3.283986
 H        -2.647028         0.991418         3.367222
 H        -4.178272        -0.645823         0.370503
 H        -2.760046         0.082195        -0.730465
 H        -2.519127        -2.146426         1.447184
 H         0.178869        -1.620597         0.864280
 H        -0.609428        -2.037168        -0.556598
 H        -0.764438         0.953351         2.296855
 H        -2.026136         2.115310         1.695110
