19
Iteration:   773charge 0 multiplicity 1
 C        -2.904537         0.295201         2.886799
 C        -2.534769         0.161274         1.444309
 C        -3.360825        -1.075862         0.845664
 C        -1.810849        -1.107069         1.047282
 C        -0.987836        -1.024008        -0.214038
 C        -0.143082         0.139917        -0.303243
 O         0.875707         0.097643        -1.028195
 O        -0.565688         1.204668         0.431078
 C        -1.966541         1.357027         0.646974
 H        -3.750306         0.894354         2.983293
 H        -3.288080        -0.561721         3.367669
 H        -2.183162         0.777891         3.434944
 H        -3.931214        -1.632349         1.562286
 H        -3.765696        -1.062135        -0.222220
 H        -1.393141        -1.947483         1.760273
 H        -0.372356        -1.868624        -0.472086
 H        -1.750623        -1.024880        -1.091022
 H        -2.195717         2.253122         1.203250
 H        -2.562126         1.417250        -0.302540
