19
Iteration:  2038charge 0 multiplicity 1
 C        -3.113905         0.046149         2.914752
 C        -2.521440         0.095580         1.542815
 C        -3.135750        -0.666219         0.358194
 C        -1.870690        -1.117206         1.011856
 C        -0.440718        -1.191230         0.504247
 C        -0.172713         0.125772        -0.324858
 O         0.402592         0.070091        -1.379636
 O        -0.816498         1.267721        -0.026583
 C        -1.724432         1.397261         1.154345
 H        -3.706683         0.913941         2.888731
 H        -3.592967        -0.884161         3.269569
 H        -2.385983         0.372554         3.675965
 H        -3.885912        -1.461749         0.484906
 H        -3.038135        -0.100448        -0.595296
 H        -1.998598        -2.002075         1.717713
 H         0.108462        -1.341762         1.487191
 H        -0.242843        -1.935760        -0.274268
 H        -1.204312         1.671024         2.065239
 H        -2.438670         2.122096         0.723755
