19
Iteration:    29
 C        -3.325426         0.110090         2.755001
 C        -2.375192         0.060658         1.542637
 C        -2.861763        -0.347445         0.184619
 C        -1.923441        -1.194924         0.957666
 C        -0.540523        -1.272959         0.375704
 C        -0.275921         0.015272        -0.307030
 O         0.164888        -0.027646        -1.439792
 O        -0.706611         1.300640         0.212954
 C        -1.495891         1.333819         1.474583
 H        -4.402098        -0.262205         2.537214
 H        -2.976750        -0.332103         3.712685
 H        -3.372423         1.199350         2.896642
 H        -3.962801        -0.596214        -0.016327
 H        -2.431278         0.171568        -0.660952
 H        -2.235457        -2.101328         1.474074
 H         0.175319        -1.309117         1.229412
 H        -0.519420        -2.035546        -0.464786
 H        -0.793882         1.164852         2.342640
 H        -2.000619         2.311639         1.668634
