19
Iteration:  3115
 C        -3.169103         0.191229         2.899471
 C        -2.457389         0.015016         1.580975
 C        -3.176054        -0.678469         0.471433
 C        -1.928390        -1.223928         1.050687
 C        -0.633274        -1.115250         0.264301
 C        -0.183664         0.088032        -0.431419
 O         0.671936         0.260418        -1.224533
 O        -0.921228         1.241372        -0.090052
 C        -1.580980         1.217074         1.216511
 H        -3.257493        -0.822148         3.502502
 H        -2.555249         0.972011         3.397406
 H        -4.192517         0.533294         2.881220
 H        -4.129302        -1.121228         0.965984
 H        -3.294196        -0.529002        -0.564229
 H        -2.045509        -2.182852         1.508903
 H         0.160018        -1.211196         0.947560
 H        -0.722166        -2.026890        -0.401145
 H        -0.858831         1.355357         2.013084
 H        -2.325445         2.123781         1.041207
