19
Iteration:   138charge 0 multiplicity 1
 C        -3.442496         0.187447         2.768872
 C        -2.446054         0.118531         1.576752
 C        -3.006536        -0.318499         0.308255
 C        -1.891847        -1.193045         0.985989
 C        -0.553441        -1.241917         0.343964
 C        -0.256051         0.007847        -0.443399
 O         0.318350         0.102460        -1.479949
 O        -0.673968         1.178998         0.201334
 C        -1.406052         1.181200         1.491300
 H        -3.914447        -0.783679         3.272136
 H        -2.937241         0.704050         3.622456
 H        -4.291076         0.846916         2.488122
 H        -4.006533        -0.724997         0.559381
 H        -2.880454         0.178383        -0.702529
 H        -2.204733        -2.179538         1.261617
 H         0.266458        -1.489570         1.000327
 H        -0.468559        -2.123145        -0.349796
 H        -0.669061         1.040598         2.350184
 H        -1.933197         2.165999         1.460658
