19
Iteration:  2929
 C        -3.308078         0.254085         2.775414
 C        -2.442700        -0.006650         1.590669
 C        -2.860745        -0.672148         0.306987
 C        -1.770502        -1.309971         1.121583
 C        -0.355519        -1.091096         0.555869
 C        -0.294678         0.121203        -0.377742
 O         0.269224         0.163703        -1.436229
 O        -1.001136         1.299251        -0.010867
 C        -1.578624         1.172501         1.259116
 H        -3.427649         1.392322         2.705463
 H        -4.301884        -0.214371         2.674003
 H        -2.984838        -0.067107         3.731869
 H        -3.921517        -0.908147         0.315200
 H        -2.563363        -0.267072        -0.681598
 H        -1.939425        -2.067920         1.834778
 H         0.395771        -1.111853         1.421742
 H         0.013046        -2.030087         0.000020
 H        -0.769516         1.173713         1.975415
 H        -2.233139         2.115284         1.274866
