19
Iteration:  4858
 C        -3.314365         0.105182         2.807951
 C        -2.365435         0.077232         1.643510
 C        -3.069505        -0.286902         0.275429
 C        -2.001506        -1.217929         0.951853
 C        -0.577664        -1.194797         0.415622
 C        -0.198216         0.027610        -0.377267
 O         0.256414         0.059010        -1.532557
 O        -0.708240         1.227419         0.155169
 C        -1.341302         1.205360         1.434102
 H        -3.819725         1.214885         2.814595
 H        -4.144883        -0.652510         2.636031
 H        -2.855984        -0.106173         3.847841
 H        -4.126165        -0.596597         0.130284
 H        -2.658675         0.401485        -0.534945
 H        -2.389650        -2.243339         1.249109
 H         0.086102        -1.242882         1.300379
 H        -0.458406        -2.145442        -0.099779
 H        -0.712396         1.200050         2.283115
 H        -2.034451         2.034166         1.480202
