19
Iteration:  4047charge 0 multiplicity 1
 C        -3.422829         0.114281         2.924427
 C        -2.483879         0.145145         1.663659
 C        -3.091760        -0.275617         0.337881
 C        -2.025510        -1.173347         0.932641
 C        -0.580559        -1.268266         0.253887
 C        -0.217451        -0.027400        -0.473646
 O         0.451059         0.092133        -1.494097
 O        -0.691209         1.223381         0.177051
 C        -1.355621         1.209969         1.457764
 H        -4.352173         0.104924         2.408062
 H        -3.086454        -0.783241         3.498311
 H        -3.263748         1.006328         3.496802
 H        -4.075360        -0.577886         0.165831
 H        -2.812129         0.238360        -0.592472
 H        -2.213553        -2.125043         1.531984
 H         0.179664        -1.680853         1.019003
 H        -0.704000        -2.119394        -0.455698
 H        -0.557419         1.049638         2.209614
 H        -1.899648         2.181760         1.518042
