19
Iteration:  4899
 C        -3.261049         0.105950         2.820355
 C        -2.438181         0.152632         1.577675
 C        -3.104233        -0.357491         0.237973
 C        -1.982905        -1.126327         0.982354
 C        -0.598858        -1.241754         0.326202
 C        -0.216514         0.030523        -0.412241
 O         0.333547         0.042859        -1.489600
 O        -0.756229         1.210480         0.221250
 C        -1.356598         1.236566         1.480451
 H        -3.961368         0.877905         2.776925
 H        -3.915758        -0.771539         2.824292
 H        -2.923985         0.155914         3.835189
 H        -4.055563        -0.932486         0.322491
 H        -2.784870         0.123491        -0.737893
 H        -2.394241        -2.030125         1.557340
 H         0.134194        -1.446393         1.123050
 H        -0.532961        -2.070103        -0.421002
 H        -0.508270         1.188848         2.222664
 H        -1.557480         2.288331         1.522543
