19
Iteration:   715charge 0 multiplicity 1
 C        -2.853894         0.222456         3.084045
 C        -2.494086         0.031142         1.530607
 C        -3.339263        -0.628621         0.572443
 C        -1.965726        -1.233691         0.842866
 C        -0.653839        -1.214507         0.127723
 C        -0.145963         0.091414        -0.290402
 O         0.834478         0.115399        -1.060479
 O        -0.829417         1.272744         0.005715
 C        -1.992854         1.316083         0.908099
 H        -3.766094         0.724930         3.078762
 H        -2.710837        -0.644435         3.718692
 H        -2.137852         0.960714         3.515495
 H        -4.246983        -1.311365         0.816366
 H        -3.519824        -0.070893        -0.354471
 H        -1.988891        -2.107436         1.487755
 H         0.004278        -1.600975         0.958329
 H        -0.755747        -1.962370        -0.667119
 H        -1.671160         2.021339         1.662402
 H        -2.690328         1.806296         0.247778
