19
Iteration:  3433charge 0 multiplicity 1
 C        -3.147778         0.151352         2.843497
 C        -2.469245         0.057682         1.550207
 C        -3.125298        -0.416559         0.215924
 C        -2.051482        -1.255294         0.996451
 C        -0.696910        -1.201983         0.353033
 C        -0.329074         0.080715        -0.413422
 O         0.432613         0.125055        -1.317017
 O        -0.716887         1.283999         0.120640
 C        -1.335065         1.154215         1.362882
 H        -2.393751         0.697781         3.498759
 H        -4.094392         0.755745         2.864722
 H        -3.340698        -0.779872         3.360460
 H        -4.187053        -0.525549         0.337814
 H        -2.915530         0.045157        -0.746026
 H        -2.491839        -2.257854         1.211465
 H         0.170513        -1.413477         1.115794
 H        -0.724011        -2.064069        -0.356112
 H        -0.515493         1.053086         2.169952
 H        -1.863333         2.141511         1.667909
