19
Iteration:  1581charge 0 multiplicity 1
 C        -3.236614         0.101685         2.897152
 C        -2.446921         0.124938         1.530389
 C        -3.146871        -0.628865         0.469314
 C        -1.806367        -1.201022         1.079646
 C        -0.490324        -1.142816         0.362054
 C        -0.201108         0.081412        -0.399928
 O         0.522390        -0.003151        -1.339877
 O        -0.821780         1.245078        -0.066573
 C        -1.741995         1.447126         1.229132
 H        -4.122466         0.744674         2.775609
 H        -3.660349        -0.868371         3.243098
 H        -2.651187         0.502620         3.759976
 H        -4.087160        -1.099858         0.831247
 H        -3.147844        -0.534004        -0.658796
 H        -2.001473        -1.922609         1.840756
 H         0.387198        -1.170229         0.926422
 H        -0.389804        -1.945333        -0.324698
 H        -1.042702         1.753521         2.076956
 H        -2.408593         2.314790         0.900252
