19
Iteration:  2842charge 0 multiplicity 1
 C        -3.089316         0.258307         2.911561
 C        -2.530499         0.091576         1.550728
 C        -3.013531        -0.566370         0.384048
 C        -1.816271        -1.312057         1.050961
 C        -0.438110        -1.300084         0.296338
 C        -0.310284         0.065851        -0.361898
 O         0.526056         0.196938        -1.246388
 O        -0.931683         1.222355         0.017793
 C        -1.817039         1.320594         1.172726
 H        -4.177540         0.652941         2.902826
 H        -3.254924        -0.767597         3.363529
 H        -2.415527         0.735691         3.588891
 H        -3.972489        -1.176343         0.390792
 H        -2.815512        -0.061109        -0.507718
 H        -1.934584        -2.216471         1.601554
 H         0.544630        -1.248241         0.898595
 H        -0.248078        -2.129570        -0.477106
 H        -1.245236         1.789065         1.966698
 H        -2.575968         2.058283         0.765452
