19
Iteration:  1557
 C        -3.032928         0.093314         2.953850
 C        -2.578405         0.161290         1.482201
 C        -3.153417        -0.791293         0.382912
 C        -1.936115        -1.139466         1.130429
 C        -0.622691        -1.069609         0.507415
 C        -0.175569         0.111518        -0.375017
 O         0.557306         0.023806        -1.341035
 O        -0.770955         1.317393        -0.049746
 C        -1.730391         1.359201         1.023057
 H        -3.782242         0.700640         3.459941
 H        -3.565889        -0.893776         2.888676
 H        -2.200160        -0.138608         3.699717
 H        -4.197055        -1.208749         0.543380
 H        -3.151673        -0.316387        -0.590752
 H        -2.205520        -1.949525         1.823231
 H         0.263590        -1.059086         1.211700
 H        -0.538068        -2.029090        -0.035688
 H        -0.947192         1.411032         1.927443
 H        -2.262741         2.368165         0.944124
