19
Iteration:  4680
 C        -3.026454         0.164961         2.965715
 C        -2.508326         0.037638         1.595249
 C        -3.232915        -0.302865         0.286824
 C        -2.086267        -1.200308         0.861497
 C        -0.661281        -1.239416         0.314556
 C        -0.198397         0.040850        -0.458665
 O         0.608572         0.177273        -1.292702
 O        -0.769041         1.176822         0.045422
 C        -1.546702         1.101258         1.383723
 H        -3.344367         1.183284         3.354127
 H        -3.998008        -0.295025         3.252172
 H        -2.299344        -0.062961         3.795168
 H        -4.152194        -0.803760         0.292407
 H        -3.251106         0.388707        -0.552047
 H        -2.560254        -2.030799         1.297696
 H         0.000509        -1.442704         1.140700
 H        -0.535856        -2.076327        -0.375976
 H        -0.828057         1.321444         2.137854
 H        -2.095105         1.961830         1.110107
