19
Iteration:  3757charge 0 multiplicity 1
 C        -3.257189         0.326701         2.846936
 C        -2.438877        -0.006469         1.630708
 C        -3.111704        -0.273448         0.282505
 C        -2.085284        -1.204769         0.833090
 C        -0.634481        -1.228421         0.337099
 C        -0.221918        -0.029847        -0.467942
 O         0.351731         0.128240        -1.482410
 O        -0.620484         1.178256         0.256315
 C        -1.400686         1.034968         1.476208
 H        -3.921094        -0.537643         3.099430
 H        -2.519324         0.534412         3.589343
 H        -3.770792         1.291593         2.686789
 H        -4.169233        -0.597749         0.331271
 H        -2.804302         0.530203        -0.338952
 H        -2.619752        -2.183412         1.106969
 H         0.137668        -1.220054         1.202018
 H        -0.451512        -2.195369        -0.263525
 H        -0.573300         1.130925         2.231781
 H        -1.966478         1.948548         1.593501
