19
Iteration:  3280charge 0 multiplicity 1
 C        -3.372413         0.188005         2.822436
 C        -2.417998         0.059003         1.627713
 C        -3.127842        -0.490317         0.347224
 C        -1.953787        -1.225720         0.975715
 C        -0.465892        -1.170914         0.386889
 C        -0.227509         0.119896        -0.448477
 O         0.440564         0.099830        -1.463286
 O        -0.817542         1.261521         0.079231
 C        -1.444686         1.168645         1.451656
 H        -4.511836         0.346973         2.778181
 H        -3.199156        -0.725006         3.491687
 H        -3.038553         1.025493         3.459954
 H        -4.097828        -0.953322         0.410654
 H        -2.886379        -0.101497        -0.648617
 H        -2.262543        -2.223504         1.400723
 H         0.301494        -1.281053         1.124897
 H        -0.397349        -1.959374        -0.397658
 H        -0.628730         1.144090         2.129774
 H        -1.887742         2.201834         1.320594
