19
Iteration:  3477charge 0 multiplicity 1
 C        -3.247390         0.148907         2.963140
 C        -2.467204         0.090096         1.601008
 C        -3.187920        -0.258675         0.386456
 C        -2.005669        -1.145243         0.887552
 C        -0.632848        -1.286920         0.216008
 C        -0.155172         0.018717        -0.406064
 O         0.530461         0.122647        -1.407258
 O        -0.697631         1.093657         0.162036
 C        -1.523636         1.244716         1.343739
 H        -3.046140         1.153848         3.425144
 H        -4.303142        -0.133763         2.879971
 H        -2.885939        -0.534053         3.721702
 H        -3.953636        -0.922207         0.532416
 H        -3.237343         0.299584        -0.581963
 H        -2.511226        -2.007211         1.390066
 H         0.195295        -1.838896         0.836963
 H        -0.788997        -1.861458        -0.715493
 H        -0.898188         1.404690         2.272194
 H        -2.010736         2.274169         1.146889
