19
Iteration:  2239charge 0 multiplicity 1
 C        -3.134640         0.195147         2.927273
 C        -2.479923         0.028143         1.535897
 C        -3.181858        -0.661734         0.408518
 C        -1.858267        -1.200665         0.934595
 C        -0.420081        -1.131006         0.462431
 C        -0.211577         0.098179        -0.397640
 O         0.471610         0.087842        -1.418674
 O        -0.770018         1.253334         0.085256
 C        -1.805469         1.315804         1.205965
 H        -4.047299         0.846980         2.704001
 H        -3.560178        -0.722580         3.328869
 H        -2.497640         0.698967         3.638931
 H        -4.123757        -1.284570         0.538066
 H        -3.270445        -0.282098        -0.610527
 H        -1.843112        -1.982095         1.666555
 H         0.354167        -1.205263         1.357031
 H        -0.101162        -1.935483        -0.277236
 H        -1.109003         1.697947         2.046588
 H        -2.683982         2.019432         0.900321
