19
Iteration:  4506charge 0 multiplicity 1
 C        -3.316384        -0.015680         2.801340
 C        -2.498777         0.184311         1.586839
 C        -3.115356        -0.330612         0.331831
 C        -1.941118        -1.105275         0.945978
 C        -0.567764        -1.225901         0.452205
 C        -0.236038         0.009110        -0.466099
 O         0.303992         0.085964        -1.528088
 O        -0.675044         1.197052         0.166417
 C        -1.348247         1.245969         1.429647
 H        -3.706461         0.900161         3.234723
 H        -4.240295        -0.545839         2.644231
 H        -2.970544        -0.427454         3.696360
 H        -4.090062        -0.891054         0.384331
 H        -2.708377         0.079959        -0.568376
 H        -2.371141        -1.897200         1.508776
 H         0.110052        -1.374687         1.371712
 H        -0.308957        -2.042525        -0.254511
 H        -0.515938         1.276395         2.187410
 H        -1.739433         2.289936         1.480365
