19
Iteration:   616
 C        -3.426190         0.375214         2.798545
 C        -2.447432         0.025687         1.634875
 C        -3.015460        -0.695709         0.413072
 C        -1.829661        -1.326911         1.097983
 C        -0.402262        -1.173125         0.483232
 C        -0.260999         0.086106        -0.490792
 O         0.444329         0.232972        -1.521722
 O        -0.883871         1.218160         0.041348
 C        -1.579250         1.169763         1.348460
 H        -3.328083         1.389160         2.980611
 H        -4.445934         0.272198         2.427550
 H        -3.036583        -0.011974         3.760539
 H        -3.997304        -1.146137         0.575199
 H        -2.954615        -0.288743        -0.625167
 H        -1.925585        -2.228348         1.591227
 H         0.344990        -1.124984         1.356272
 H        -0.079156        -1.987489        -0.192925
 H        -0.691176         1.313892         1.981672
 H        -2.084461         2.097050         1.287755
