19
Iteration:  1604charge 0 multiplicity 1
 C        -3.305676         0.283367         2.793140
 C        -2.383921         0.060663         1.654917
 C        -2.994949        -0.621605         0.485119
 C        -1.827752        -1.244337         1.143209
 C        -0.531472        -1.277994         0.403725
 C        -0.256479         0.036676        -0.440425
 O         0.470291         0.240422        -1.382358
 O        -0.906296         1.187569        -0.036174
 C        -1.585148         1.278890         1.202735
 H        -4.171470         0.842461         2.381007
 H        -3.711877        -0.603859         3.344011
 H        -2.860891         0.932853         3.553658
 H        -3.870987        -1.254404         0.464677
 H        -2.768899        -0.151930        -0.524457
 H        -2.121391        -2.056901         1.788655
 H         0.303401        -1.360412         1.009536
 H        -0.475028        -2.080192        -0.288679
 H        -1.038626         1.771019         2.046377
 H        -2.442191         1.962276         0.898157
