19
Iteration:  2004charge 0 multiplicity 1
 C        -3.136236         0.305826         2.896942
 C        -2.438520         0.070999         1.547731
 C        -3.078160        -0.755920         0.409097
 C        -1.891748        -1.280979         1.085815
 C        -0.600990        -1.190225         0.274195
 C        -0.320177         0.080984        -0.459246
 O         0.592211         0.230779        -1.248497
 O        -0.946130         1.207948        -0.013795
 C        -1.627156         1.247849         1.258235
 H        -4.039348         0.776782         2.603988
 H        -3.499714        -0.407686         3.635692
 H        -2.566406         1.075156         3.425607
 H        -4.017985        -1.252844         0.385171
 H        -2.879759        -0.420149        -0.657582
 H        -1.837696        -2.076333         1.829789
 H         0.292877        -1.120523         0.959198
 H        -0.236167        -2.049875        -0.336156
 H        -0.928831         1.610619         1.990423
 H        -2.274284         2.137761         1.093309
