19
Iteration:   546charge 0 multiplicity 1
 C        -3.364744         0.102271         2.705103
 C        -2.390030         0.080580         1.491996
 C        -2.857353        -0.582297         0.222477
 C        -1.787693        -1.181069         1.030335
 C        -0.310074        -1.115503         0.631031
 C        -0.307919         0.051555        -0.296428
 O        -0.156301         0.010541        -1.522290
 O        -0.534812         1.225178         0.285380
 C        -1.602858         1.378078         1.228959
 H        -3.965385         1.108050         2.807727
 H        -4.084374        -0.682077         2.526989
 H        -2.745768         0.141280         3.603690
 H        -3.901818        -0.938012         0.216405
 H        -2.589764        -0.262161        -0.743345
 H        -2.129422        -2.038932         1.721852
 H         0.376729        -0.794305         1.464315
 H         0.026968        -1.964851         0.064222
 H        -1.062955         1.710486         2.137944
 H        -2.187250         2.176261         0.718339
