19
Iteration:  3298
 C        -3.339889         0.074711         2.913865
 C        -2.532027         0.097387         1.491635
 C        -3.116560        -0.584922         0.380086
 C        -1.952358        -1.178101         1.034159
 C        -0.642698        -1.068697         0.363362
 C        -0.255121         0.022792        -0.496574
 O         0.436177         0.136237        -1.499722
 O        -0.624525         1.277456         0.144982
 C        -1.394147         1.204811         1.360935
 H        -4.373942        -0.089908         2.542928
 H        -3.229773        -0.645095         3.668385
 H        -3.552525         1.078996         3.259390
 H        -4.078984        -0.957643         0.612187
 H        -3.077239        -0.009435        -0.627549
 H        -2.060302        -2.074035         1.572866
 H        -0.048536        -0.860154         1.354003
 H        -0.212308        -2.066007        -0.009087
 H        -0.572717         0.991141         2.151406
 H        -1.743106         2.236541         1.458885
