19
Iteration:   782charge 0 multiplicity 1
 C        -2.923425         0.341359         2.917417
 C        -2.530008         0.067269         1.466869
 C        -3.325827        -1.067581         0.902352
 C        -1.821671        -1.136129         0.972534
 C        -1.053081        -0.963239        -0.258882
 C        -0.069622         0.138277        -0.282806
 O         0.862296         0.083680        -1.000412
 O        -0.560629         1.225339         0.475848
 C        -2.014430         1.308844         0.568060
 H        -3.606504         1.147989         2.873168
 H        -3.357014        -0.575747         3.323867
 H        -2.088234         0.709552         3.551719
 H        -3.888870        -1.648041         1.675879
 H        -3.870923        -1.127745        -0.121632
 H        -1.252257        -1.766076         1.768066
 H        -0.512746        -1.842074        -0.580365
 H        -1.603165        -0.628285        -1.175773
 H        -2.064936         2.270557         0.996748
 H        -2.462205         1.286123        -0.426798
