19
Iteration:  2245
 C        -3.165964         0.165311         2.940117
 C        -2.536649         0.050115         1.502960
 C        -3.229747        -0.683513         0.397832
 C        -1.825157        -1.224619         0.995208
 C        -0.435150        -1.138695         0.419385
 C        -0.174893         0.097921        -0.400156
 O         0.491791         0.102557        -1.388318
 O        -0.776481         1.279541         0.012683
 C        -1.759582         1.365177         1.240412
 H        -3.895738         0.962224         2.946422
 H        -3.608086        -0.745060         3.388641
 H        -2.504080         0.520006         3.789141
 H        -4.046268        -1.277846         0.712430
 H        -3.274023        -0.477176        -0.710437
 H        -1.847945        -2.116289         1.677980
 H         0.229881        -1.177591         1.211078
 H        -0.179385        -2.008916        -0.137262
 H        -1.108960         1.619786         2.010012
 H        -2.444584         2.047575         0.851653
