19
Iteration:  4486
 C        -3.233166         0.170622         2.862144
 C        -2.416555         0.070292         1.549237
 C        -3.031259        -0.323951         0.167469
 C        -1.978122        -1.260247         0.912815
 C        -0.547669        -1.195768         0.428807
 C        -0.275303         0.021349        -0.398648
 O         0.239363         0.102496        -1.469274
 O        -0.658360         1.177737         0.193241
 C        -1.465125         1.217002         1.441938
 H        -3.369635         1.087889         3.466725
 H        -4.238254        -0.218524         2.788828
 H        -2.822893        -0.434846         3.678967
 H        -4.111129        -0.643613         0.272774
 H        -2.768232         0.398122        -0.632543
 H        -2.404205        -2.182229         1.356192
 H         0.219780        -1.065411         1.248415
 H        -0.219660        -2.107955        -0.130294
 H        -0.823149         1.286472         2.275877
 H        -2.154123         2.038178         1.406577
