19
Iteration:  3744charge 0 multiplicity 1
 C        -3.256406         0.340488         2.858507
 C        -2.454177         0.012663         1.571096
 C        -3.205747        -0.289162         0.257451
 C        -2.089707        -1.230727         0.803712
 C        -0.612483        -1.225216         0.325175
 C        -0.255780         0.075628        -0.391945
 O         0.344375         0.087656        -1.493123
 O        -0.592500         1.170479         0.240537
 C        -1.275055         1.080509         1.556721
 H        -3.802697        -0.481510         3.358468
 H        -2.717326         0.801839         3.700561
 H        -4.062222         1.024675         2.555095
 H        -4.130675        -0.767856         0.438891
 H        -3.230221        -0.008480        -0.811767
 H        -2.364382        -2.289707         1.075810
 H         0.024112        -1.453164         1.251409
 H        -0.396402        -2.030941        -0.442576
 H        -0.640732         0.807439         2.417111
 H        -1.674364         2.133407         1.614287
