19
Iteration:  3977charge 0 multiplicity 1
 C        -2.987435         0.223159         2.969044
 C        -2.411278         0.090768         1.490364
 C        -3.140646        -0.318040         0.202086
 C        -2.134390        -1.247784         0.813432
 C        -0.745111        -1.265088         0.239525
 C        -0.314268         0.018451        -0.339893
 O         0.459184         0.084823        -1.249607
 O        -0.706423         1.196401         0.262954
 C        -1.496506         1.221392         1.373310
 H        -3.791744        -0.518927         3.091949
 H        -2.056940        -0.041014         3.501146
 H        -3.276959         1.275609         3.014296
 H        -4.211118        -0.625154         0.011037
 H        -2.738487         0.023415        -0.745424
 H        -2.519564        -2.162462         1.122961
 H        -0.009959        -1.690833         0.883308
 H        -0.698792        -1.915566        -0.618150
 H        -0.777709         1.363721         2.203709
 H        -1.971087         2.152826         1.245864
