19
Iteration:  4222charge 0 multiplicity 1
 C        -3.207320         0.201880         2.867197
 C        -2.549293         0.066025         1.560912
 C        -3.371512        -0.384006         0.416885
 C        -2.162068        -1.251362         0.895076
 C        -0.746694        -1.220588         0.205023
 C        -0.165560         0.074621        -0.459609
 O         0.648981         0.213755        -1.312563
 O        -0.582027         1.247828         0.138923
 C        -1.359588         1.013894         1.370103
 H        -3.051242        -0.799319         3.280226
 H        -2.527377         0.792761         3.492755
 H        -4.218970         0.495469         2.679109
 H        -4.314982        -0.707341         0.814032
 H        -3.514789         0.254269        -0.376978
 H        -2.580888        -2.128939         1.346170
 H        -0.009408        -1.339605         0.939673
 H        -0.502182        -1.962809        -0.537213
 H        -0.649394         0.969885         2.225898
 H        -1.709508         2.074417         1.531544
