19
Iteration:  4378charge 0 multiplicity 1
 C        -3.225644         0.152558         2.807639
 C        -2.400568         0.085089         1.579856
 C        -3.041389        -0.344571         0.317996
 C        -2.021839        -1.192190         0.900113
 C        -0.659529        -1.309073         0.264218
 C        -0.229241         0.054425        -0.377545
 O         0.432433         0.109933        -1.383599
 O        -0.802324         1.225412         0.166763
 C        -1.435237         1.197769         1.502004
 H        -4.293791         0.442177         2.671363
 H        -3.235086        -0.835917         3.342273
 H        -2.724633         0.768299         3.621657
 H        -4.149747        -0.630198         0.255105
 H        -2.711432         0.207925        -0.610831
 H        -2.450900        -2.068819         1.454120
 H         0.121113        -1.637840         0.883594
 H        -0.732753        -1.940418        -0.645499
 H        -0.548477         1.488915         2.125015
 H        -1.955844         2.148009         1.331413
