19
Iteration:  2342charge 0 multiplicity 1
 C        -3.020519         0.284678         2.965611
 C        -2.556616         0.043374         1.561970
 C        -3.294779        -0.681012         0.496480
 C        -1.938748        -1.285144         1.017416
 C        -0.566679        -1.186425         0.363678
 C        -0.127867         0.107981        -0.456838
 O         0.799894         0.347736        -1.209504
 O        -1.013569         1.111619        -0.172904
 C        -1.762728         1.235444         1.154014
 H        -3.228253         1.315691         3.140993
 H        -3.879579        -0.338062         3.258631
 H        -2.298806         0.081694         3.788374
 H        -4.129768        -1.315623         0.698323
 H        -3.189747        -0.319374        -0.520057
 H        -1.969196        -2.132035         1.734226
 H         0.229356        -1.360607         1.091201
 H        -0.348952        -1.978899        -0.428861
 H        -0.950289         1.364562         1.973002
 H        -2.363497         2.147139         1.033011
