19
Iteration:    46charge 0 multiplicity 1
 C        -3.412498         0.130781         2.711058
 C        -2.446526         0.137249         1.517008
 C        -2.935714        -0.375696         0.178834
 C        -1.938843        -1.205787         1.025565
 C        -0.469341        -1.195078         0.554392
 C        -0.248311         0.039135        -0.347782
 O         0.025703         0.115979        -1.517074
 O        -0.568310         1.204549         0.233960
 C        -1.346194         1.172677         1.420195
 H        -4.304681        -0.271000         2.383348
 H        -3.011962        -0.645115         3.436953
 H        -3.624035         1.077975         3.269843
 H        -3.906455        -0.749192         0.093826
 H        -2.615479         0.133378        -0.751948
 H        -2.426697        -2.178272         1.461632
 H         0.221826        -1.317236         1.391775
 H        -0.282951        -1.997306        -0.112646
 H        -0.700903         1.303396         2.301160
 H        -1.862767         2.114378         1.231900
