19
Iteration:  1812
 C        -3.315152         0.335698         2.744375
 C        -2.381766         0.032539         1.644693
 C        -2.934849        -0.551456         0.385397
 C        -1.771502        -1.270324         1.244487
 C        -0.482202        -1.278780         0.376143
 C        -0.312820         0.046736        -0.483013
 O         0.460453         0.238725        -1.382438
 O        -1.026123         1.172126        -0.037397
 C        -1.592192         1.248192         1.341923
 H        -4.080256         0.914002         2.180303
 H        -3.740453        -0.634035         3.014348
 H        -2.997939         0.798836         3.667674
 H        -3.883951        -1.030059         0.432986
 H        -2.557563        -0.323003        -0.602742
 H        -2.100624        -2.173368         1.824156
 H         0.564205        -1.327685         0.950834
 H        -0.384082        -2.120226        -0.339627
 H        -0.769761         1.528665         1.994417
 H        -2.280330         2.080479         1.433251
