19
Iteration:  3035charge 0 multiplicity 1
 C        -3.067313         0.153749         2.880136
 C        -2.491543         0.043861         1.423070
 C        -2.980689        -0.575741         0.265143
 C        -1.840323        -1.337246         1.023271
 C        -0.402507        -1.253788         0.568324
 C        -0.283284         0.146308        -0.347284
 O         0.370035         0.127912        -1.351794
 O        -0.911300         1.327340         0.037822
 C        -1.740796         1.320581         1.207702
 H        -4.173700         0.191579         3.029261
 H        -2.835553        -0.717675         3.502544
 H        -2.750705         1.066341         3.453285
 H        -3.839183        -1.118147         0.510556
 H        -2.992758        -0.112289        -0.780725
 H        -2.250495        -2.098260         1.738799
 H         0.331915        -1.334309         1.315431
 H        -0.258234        -2.045171        -0.119495
 H        -1.239722         1.774920         2.055248
 H        -2.419373         2.174931         0.954386
