19
Iteration:  1251charge 0 multiplicity 1
 C        -3.187007         0.124893         2.902524
 C        -2.492630         0.227902         1.537796
 C        -3.105975        -0.572268         0.331057
 C        -1.947882        -1.135326         1.024376
 C        -0.450359        -1.184849         0.504492
 C        -0.234512         0.072638        -0.348724
 O         0.545975         0.067831        -1.281956
 O        -1.072048         1.166399        -0.190889
 C        -1.483701         1.330858         1.240966
 H        -4.169852         0.408960         3.039743
 H        -3.200250        -0.935081         3.017038
 H        -2.577864         0.585238         3.655795
 H        -4.076366        -0.955554         0.745877
 H        -3.195901        -0.310295        -0.687702
 H        -1.961101        -1.980869         1.715652
 H         0.303712        -1.191096         1.375377
 H        -0.340395        -2.162519        -0.066443
 H        -0.663403         1.039753         1.822759
 H        -1.648224         2.428981         1.511968
