19
Iteration:   399
 C        -2.950723         0.157372         2.983776
 C        -2.468150         0.126972         1.440186
 C        -3.290539        -0.638511         0.377692
 C        -1.978036        -1.172504         0.974126
 C        -0.686916        -1.279255         0.211038
 C        -0.207105         0.064404        -0.304427
 O         0.660881         0.121330        -1.095627
 O        -0.784811         1.277737         0.035280
 C        -1.747770         1.351646         1.072569
 H        -2.519981        -0.682996         3.449800
 H        -2.510044         1.040318         3.471883
 H        -4.006311         0.160257         3.042250
 H        -4.203236        -1.226330         0.711820
 H        -3.232441        -0.226528        -0.632925
 H        -2.059563        -1.956667         1.688907
 H         0.053025        -1.650749         0.846513
 H        -0.716001        -1.990111        -0.623479
 H        -1.223218         1.642376         1.941331
 H        -2.405021         2.224841         0.899850
