19
Iteration:  4571
 C        -3.187433         0.310510         2.951483
 C        -2.423235         0.059731         1.496664
 C        -3.131295        -0.360795         0.360294
 C        -2.083365        -1.309806         0.847969
 C        -0.627004        -1.274039         0.244547
 C        -0.187643         0.049954        -0.348127
 O         0.460288         0.239762        -1.419021
 O        -0.764049         1.140319         0.201284
 C        -1.485148         1.120836         1.381089
 H        -3.942346         1.034593         2.623027
 H        -3.489496        -0.524498         3.590873
 H        -2.343238         0.860095         3.367017
 H        -4.145830        -0.818756         0.487141
 H        -2.958652        -0.002215        -0.655577
 H        -2.242335        -2.257844         1.314364
 H         0.116553        -1.647622         1.009666
 H        -0.639544        -2.091872        -0.501636
 H        -0.790783         1.115992         2.385462
 H        -1.964846         2.131553         1.541465
