19
Iteration:  3630
 C        -3.079711         0.104349         2.878578
 C        -2.523704         0.188695         1.506282
 C        -3.201445        -0.325388         0.161429
 C        -2.147821        -1.209069         0.954885
 C        -0.734472        -1.277053         0.319784
 C        -0.340567         0.029345        -0.433352
 O         0.439655         0.065708        -1.371152
 O        -0.545515         1.255549         0.243385
 C        -1.363094         1.180963         1.405089
 H        -3.656613        -0.799067         3.149400
 H        -2.140590        -0.066330         3.462242
 H        -3.593115         1.056436         3.127902
 H        -4.347503        -0.453465         0.320128
 H        -3.020023         0.251164        -0.723242
 H        -2.562722        -2.162373         1.346122
 H        -0.048735        -1.295032         1.174901
 H        -0.654279        -2.116979        -0.331518
 H        -0.712080         0.893015         2.233188
 H        -1.640244         2.288393         1.657359
