19
Iteration:  3100
 C        -3.210869         0.139804         2.937441
 C        -2.479473         0.082937         1.580551
 C        -3.307690        -0.736680         0.532528
 C        -1.969420        -1.248014         1.008113
 C        -0.578494        -1.132941         0.357766
 C        -0.170687         0.175912        -0.447790
 O         0.716135         0.261690        -1.285554
 O        -0.939253         1.207232        -0.139369
 C        -1.505471         1.262012         1.175946
 H        -3.579526        -0.919081         3.146813
 H        -2.676735         0.378580         3.868194
 H        -4.058765         0.875649         2.725012
 H        -4.107885        -1.304736         0.911292
 H        -3.443857        -0.237892        -0.486769
 H        -1.935048        -2.080416         1.740894
 H         0.177551        -1.298073         1.182104
 H        -0.291540        -1.900925        -0.339203
 H        -0.621152         1.301440         1.929411
 H        -1.988008         2.210507         1.262806
