19
Iteration:  1502
 C        -3.179794         0.317657         2.991085
 C        -2.473690         0.002257         1.637131
 C        -3.126105        -0.601993         0.381749
 C        -1.909652        -1.257970         0.947097
 C        -0.474511        -1.186895         0.419492
 C        -0.150590         0.161115        -0.327298
 O         0.577304         0.116644        -1.266289
 O        -1.049807         1.143554        -0.150104
 C        -1.597807         1.279039         1.142653
 H        -3.378032         1.395122         3.093845
 H        -4.105517        -0.250554         3.207587
 H        -2.333618         0.120080         3.720600
 H        -4.111442        -1.080158         0.487280
 H        -2.879912        -0.112010        -0.555339
 H        -2.050006        -2.216871         1.499381
 H         0.246183        -1.331272         1.164847
 H        -0.308246        -1.991934        -0.320800
 H        -0.890297         1.792729         1.892835
 H        -2.448960         1.985202         1.050657
