19
Iteration:  1865charge 0 multiplicity 1
 C        -3.055446         0.082205         2.956779
 C        -2.576915         0.108870         1.439937
 C        -3.195242        -0.761303         0.399747
 C        -1.946274        -1.107552         1.029845
 C        -0.599612        -1.084126         0.525514
 C        -0.157572         0.125651        -0.448877
 O         0.630333         0.120391        -1.376453
 O        -0.820635         1.207953        -0.004800
 C        -1.739741         1.330809         1.137915
 H        -3.693935         0.907103         3.377719
 H        -3.571772        -0.889141         3.198968
 H        -2.051687         0.038688         3.448640
 H        -4.094823        -1.185713         0.825269
 H        -3.479861        -0.531391        -0.635112
 H        -2.042926        -1.823494         1.887539
 H         0.088876        -0.897054         1.452154
 H        -0.315574        -2.023408         0.106654
 H        -0.952797         1.598375         1.847638
 H        -2.351096         2.256965         0.973516
