19
Iteration:  4298charge 0 multiplicity 1
 C        -3.155588         0.018269         2.978787
 C        -2.442841         0.111206         1.598225
 C        -3.194074        -0.315776         0.333533
 C        -2.077001        -1.210311         0.857660
 C        -0.782893        -1.252069         0.222799
 C        -0.221503         0.037790        -0.416520
 O         0.622367         0.124567        -1.266288
 O        -0.728891         1.179809         0.118227
 C        -1.462763         1.337081         1.340380
 H        -4.093927        -0.394214         2.581311
 H        -2.637209        -0.705759         3.647704
 H        -3.357239         1.037253         3.306873
 H        -4.147553        -0.734770         0.585207
 H        -3.086413         0.110163        -0.630433
 H        -2.484508        -2.129616         1.211057
 H        -0.003129        -1.550577         0.888634
 H        -0.732297        -2.011503        -0.546361
 H        -0.588801         1.468813         2.032837
 H        -1.879539         2.364613         1.206016
