19
Iteration:  3184charge 0 multiplicity 1
 C        -3.154579         0.046114         2.942471
 C        -2.506831         0.137230         1.545536
 C        -3.277516        -0.662101         0.476777
 C        -1.970328        -1.206749         0.970827
 C        -0.570165        -1.228107         0.303099
 C        -0.191347         0.062449        -0.435847
 O         0.625677         0.141244        -1.352096
 O        -0.702526         1.319895         0.037995
 C        -1.705393         1.393122         1.220418
 H        -2.534731         0.353036         3.739266
 H        -4.083273         0.653708         2.957877
 H        -3.391975        -0.994305         3.204095
 H        -4.158577        -1.174227         0.693575
 H        -3.284714        -0.246561        -0.568020
 H        -2.024310        -2.096099         1.663251
 H         0.061983        -1.163678         1.226047
 H        -0.271273        -2.056031        -0.313347
 H        -0.988228         1.607458         2.020851
 H        -2.335912         2.278096         1.002964
