19
Iteration:  1882
 C        -2.911234         0.124640         2.944788
 C        -2.612609         0.119660         1.495036
 C        -3.332520        -0.740747         0.389399
 C        -1.990128        -1.203684         1.010225
 C        -0.458402        -1.072260         0.464714
 C        -0.187701         0.040979        -0.403855
 O         0.597218         0.152810        -1.287853
 O        -0.810544         1.213864        -0.014239
 C        -1.766574         1.369843         1.071154
 H        -3.403850         1.029664         3.233545
 H        -3.598281        -0.686516         3.184219
 H        -2.090400        -0.124966         3.620096
 H        -4.286985        -1.403399         0.617484
 H        -3.075011        -0.295149        -0.540283
 H        -2.103427        -2.124245         1.541607
 H         0.114082        -0.831878         1.381434
 H        -0.014508        -2.069363         0.184623
 H        -1.389353         1.773552         2.043694
 H        -2.391021         2.243592         0.787005
