19
Iteration:  1211
 C        -3.105100         0.258870         3.041222
 C        -2.413195         0.051625         1.535718
 C        -3.150202        -0.588490         0.441704
 C        -1.963983        -1.321129         0.969796
 C        -0.568820        -1.240575         0.417283
 C        -0.227049         0.074260        -0.403171
 O         0.591941         0.082554        -1.352581
 O        -0.690489         1.290740         0.014197
 C        -1.874582         1.347862         1.085918
 H        -3.978126         1.007370         2.932936
 H        -3.552918        -0.745271         3.381593
 H        -2.440533         0.609026         3.884080
 H        -4.195671        -0.943746         0.547717
 H        -2.924688        -0.232162        -0.527300
 H        -2.220191        -2.193495         1.626515
 H         0.134529        -1.405930         1.188941
 H        -0.278936        -1.949197        -0.304363
 H        -1.428329         1.982680         1.951466
 H        -2.654311         1.944331         0.553619
