19
Iteration:  3801charge 0 multiplicity 1
 C        -3.178928        -0.015537         2.806596
 C        -2.473342         0.230940         1.516122
 C        -3.120796        -0.321277         0.238820
 C        -1.967557        -1.095178         0.978065
 C        -0.758174        -1.257593         0.304617
 C        -0.254951         0.052567        -0.315020
 O         0.350683        -0.048151        -1.387840
 O        -0.669236         1.258845         0.141582
 C        -1.314280         1.301321         1.438744
 H        -4.203749        -0.335856         2.421139
 H        -2.755829        -0.769392         3.452216
 H        -3.311791         0.934617         3.374393
 H        -4.131417        -0.780905         0.455696
 H        -2.919014         0.237534        -0.669777
 H        -2.403454        -1.938861         1.631641
 H        -0.075634        -1.683594         1.159998
 H        -0.865180        -1.971001        -0.586373
 H        -0.632052         0.930143         2.291406
 H        -1.547960         2.304339         1.678694
