19
Iteration:  4987
 C        -3.247384         0.092031         2.968058
 C        -2.422932         0.152067         1.610439
 C        -3.137144        -0.396869         0.311350
 C        -2.015300        -1.153692         1.020279
 C        -0.701224        -1.320753         0.160944
 C        -0.227667        -0.027035        -0.389339
 O         0.575341         0.158888        -1.358880
 O        -0.749058         1.154881         0.071846
 C        -1.462491         1.359507         1.369270
 H        -3.676584         1.005881         3.083262
 H        -3.976742        -0.667730         2.894232
 H        -2.597535        -0.086042         3.790935
 H        -4.200492        -0.611916         0.545069
 H        -3.021624         0.153028        -0.704758
 H        -2.093450        -2.180066         1.470788
 H         0.106833        -1.755487         0.823816
 H        -0.918017        -2.112122        -0.577156
 H        -0.900651         1.636053         2.331028
 H        -2.125742         2.173168         1.209374
