19
Iteration:  2242
 C        -3.147122         0.181782         2.934409
 C        -2.509497         0.036758         1.516474
 C        -3.206413        -0.665567         0.401900
 C        -1.840788        -1.210316         0.956655
 C        -0.426958        -1.133211         0.449878
 C        -0.193371         0.097404        -0.402853
 O         0.480569         0.093768        -1.403243
 O        -0.770508         1.265308         0.051058
 C        -1.787905         1.344137         1.228723
 H        -3.975483         0.908644         2.810978
 H        -3.594180        -0.744569         3.380209
 H        -2.512616         0.624316         3.731642
 H        -4.098035        -1.280251         0.594814
 H        -3.293608        -0.418728        -0.623157
 H        -1.804880        -2.040993         1.683673
 H         0.291142        -1.207688         1.270031
 H        -0.111741        -1.996110        -0.238380
 H        -1.079820         1.645314         2.012421
 H        -2.596453         1.992326         0.871192
