19
Iteration:  2700
 C        -2.983855         0.089680         2.959300
 C        -2.527092         0.028043         1.505870
 C        -3.353447        -0.654674         0.476952
 C        -1.987476        -1.218598         0.997452
 C        -0.514257        -1.093864         0.443458
 C        -0.163630         0.160153        -0.381485
 O         0.693003         0.087292        -1.205032
 O        -0.889085         1.350685        -0.135832
 C        -1.728403         1.272339         1.055551
 H        -3.983078         0.573629         3.060361
 H        -3.165891        -0.964142         3.236653
 H        -2.074915         0.308104         3.474286
 H        -4.171063        -1.219695         0.726792
 H        -3.402121        -0.099008        -0.494384
 H        -2.149390        -2.041005         1.711843
 H         0.152891        -1.096799         1.284041
 H        -0.269222        -2.014684        -0.139362
 H        -0.963072         1.500706         1.821218
 H        -2.498604         2.091932         0.966959
