19
Iteration:  1111
 C        -3.015152         0.479247         2.890205
 C        -2.433857        -0.014067         1.608998
 C        -3.261035        -0.841446         0.633216
 C        -1.890285        -1.320288         1.089089
 C        -0.794466        -1.242491         0.015967
 C        -0.182269         0.133037        -0.324998
 O         0.646159         0.227621        -1.252814
 O        -0.480616         1.285293         0.405852
 C        -1.984311         1.241744         0.750416
 H        -4.006367         0.981869         2.634328
 H        -3.236978        -0.455690         3.499858
 H        -2.326847         1.121054         3.565334
 H        -4.069932        -1.303349         1.103948
 H        -3.486758        -0.538026        -0.386503
 H        -1.883595        -2.273666         1.571886
 H         0.047138        -1.859003         0.190781
 H        -1.158838        -1.656882        -0.881059
 H        -2.036770         2.119804         1.400057
 H        -2.492594         1.469192        -0.192701
