19
Iteration:  3355
 C        -3.205550         0.216820         2.855885
 C        -2.403885         0.056916         1.557866
 C        -2.974774        -0.362863         0.195581
 C        -1.895170        -1.326800         0.942803
 C        -0.551227        -1.298383         0.322819
 C        -0.354500         0.011197        -0.360933
 O         0.264301         0.113872        -1.392668
 O        -0.656166         1.226076         0.192485
 C        -1.592241         1.303028         1.436856
 H        -3.289185        -0.800346         3.365727
 H        -2.708249         0.900170         3.557277
 H        -4.154979         0.704434         2.802231
 H        -4.012917        -0.801297         0.157103
 H        -2.685231         0.281069        -0.610911
 H        -2.398667        -2.249993         1.351059
 H         0.255505        -1.445806         1.153166
 H        -0.414101        -2.063338        -0.530430
 H        -0.990753         1.764223         2.351767
 H        -2.364349         2.105349         1.084071
