19
Iteration:  4841charge 0 multiplicity 1
 C        -3.237656         0.152298         2.820369
 C        -2.511290         0.141709         1.483038
 C        -3.080150        -0.407557         0.228016
 C        -1.993402        -1.164732         0.872105
 C        -0.568963        -1.244094         0.436494
 C        -0.311934         0.057911        -0.372386
 O         0.255369         0.051953        -1.473003
 O        -0.643623         1.221355         0.198508
 C        -1.355331         1.227307         1.518850
 H        -3.639840         1.088014         2.971945
 H        -4.002425        -0.592637         2.769017
 H        -2.523576        -0.128851         3.542587
 H        -4.012647        -0.815993         0.520382
 H        -3.072270        -0.059162        -0.771122
 H        -2.304204        -1.963941         1.481324
 H         0.159504        -1.210104         1.282781
 H        -0.218179        -1.979517        -0.288199
 H        -0.534948         0.869935         2.241291
 H        -1.701958         2.303058         1.686311
