19
Iteration:  4673charge 0 multiplicity 1
 C        -3.065375         0.102017         2.996319
 C        -2.482072         0.047347         1.571535
 C        -3.204997        -0.259344         0.290135
 C        -2.093498        -1.183128         0.912598
 C        -0.676255        -1.218731         0.270870
 C        -0.206582         0.028654        -0.455397
 O         0.658332         0.140043        -1.336001
 O        -0.822397         1.147614         0.097162
 C        -1.590859         1.192580         1.366772
 H        -3.181992         1.166262         3.136879
 H        -4.005659        -0.363489         3.215764
 H        -2.323289        -0.141712         3.710688
 H        -4.141289        -0.881391         0.313459
 H        -2.915009         0.423644        -0.560901
 H        -2.217747        -2.199067         1.445859
 H        -0.006471        -1.547744         1.145407
 H        -0.676178        -2.106448        -0.410716
 H        -0.690338         1.423251         2.096552
 H        -2.142126         2.146617         1.178370
