19
Iteration:  2095
 C        -3.282972         0.149834         2.893853
 C        -2.508685         0.118856         1.502149
 C        -2.902476        -0.710086         0.217804
 C        -1.813796        -1.203138         1.071556
 C        -0.332661        -1.048226         0.624868
 C        -0.237896         0.111936        -0.363546
 O         0.238989         0.055661        -1.461507
 O        -0.945195         1.236891        -0.005572
 C        -1.534965         1.299787         1.245709
 H        -3.581733         1.148427         3.209258
 H        -4.237064        -0.331567         2.764767
 H        -2.722727        -0.359944         3.661510
 H        -3.894176        -1.087629         0.497613
 H        -2.932136        -0.274377        -0.764847
 H        -2.075509        -2.095954         1.698324
 H         0.237241        -1.113795         1.575980
 H         0.010304        -1.834417         0.002937
 H        -0.897160         1.383062         2.142967
 H        -2.016538         2.294413         1.251171
