19
Iteration:  1357
 C        -3.161463         0.159304         2.794237
 C        -2.358593         0.163692         1.440628
 C        -3.084923        -0.907787         0.373571
 C        -1.832019        -1.224795         1.192921
 C        -0.630925        -1.152350         0.366858
 C        -0.359090         0.141252        -0.387103
 O         0.253432        -0.020861        -1.425651
 O        -0.430488         1.322555         0.315389
 C        -1.749889         1.529901         1.058378
 H        -3.704757         1.174725         2.860298
 H        -3.874820        -0.705456         2.781362
 H        -2.591877        -0.220394         3.708705
 H        -4.174814        -0.924803         0.722669
 H        -2.964508        -0.633862        -0.637520
 H        -1.978802        -2.032656         1.888794
 H         0.126747        -1.006089         1.031472
 H        -0.486557        -2.118633        -0.165080
 H        -1.752508         2.167975         2.066022
 H        -2.392884         1.998438         0.324284
