19
Iteration:  1675
 C        -3.280869         0.111940         2.767453
 C        -2.455999         0.080647         1.543078
 C        -3.038804        -0.626371         0.432618
 C        -1.922342        -1.293589         1.160043
 C        -0.468315        -1.088030         0.589890
 C        -0.218498         0.138840        -0.431967
 O         0.335304         0.068022        -1.502754
 O        -0.749311         1.286524        -0.071755
 C        -1.605471         1.326086         1.267207
 H        -3.896866         1.005747         2.864347
 H        -3.937393        -0.757786         2.852473
 H        -2.658206         0.020576         3.685031
 H        -3.958227        -1.214844         0.451576
 H        -2.872936        -0.399800        -0.641615
 H        -2.038509        -2.014239         1.969795
 H         0.077636        -0.863544         1.558598
 H         0.106976        -1.941666         0.134744
 H        -0.880842         1.520221         2.033603
 H        -2.198781         2.216955         1.216666
