19
Iteration:  4989
 C        -3.240622         0.077638         2.949845
 C        -2.429611         0.151448         1.595940
 C        -3.124161        -0.393574         0.315332
 C        -2.016798        -1.155411         1.039720
 C        -0.728514        -1.318074         0.155618
 C        -0.225829        -0.022022        -0.384605
 O         0.587918         0.146037        -1.360049
 O        -0.767060         1.154801         0.078281
 C        -1.449928         1.368234         1.357663
 H        -3.759972         1.053794         3.164271
 H        -3.977865        -0.717040         2.925248
 H        -2.568078        -0.153443         3.797417
 H        -4.168799        -0.639200         0.628269
 H        -2.936953         0.131353        -0.671133
 H        -2.170250        -2.176380         1.461537
 H         0.110086        -1.604946         0.806419
 H        -0.876618        -2.045797        -0.614959
 H        -0.844653         1.661540         2.335076
 H        -2.109057         2.214587         1.206917
