19
Iteration:   940
 C        -2.180916         0.488078         2.876285
 C        -2.418309         0.044963         1.365124
 C        -3.370281        -1.140642         0.934165
 C        -1.866475        -1.241262         0.797074
 C        -1.269646        -0.937396        -0.532266
 C        -0.273041         0.124471        -0.223222
 O         0.980648        -0.023442        -0.108581
 O        -0.817218         1.383146         0.125967
 C        -2.273342         1.282724         0.437397
 H        -2.954466         1.116121         3.290014
 H        -2.213027        -0.436073         3.405452
 H        -1.260909         0.990469         3.021429
 H        -3.850434        -1.770167         1.639159
 H        -3.836853        -1.115726        -0.051111
 H        -1.408878        -1.951779         1.392118
 H        -0.528182        -1.682571        -1.012342
 H        -2.032206        -0.629712        -1.335296
 H        -2.615779         2.264879         0.968510
 H        -2.837240         1.044941        -0.516737
