19
Iteration:   954
 C        -2.273858         0.371339         2.786163
 C        -2.478031         0.087289         1.375401
 C        -3.270856        -1.153919         0.958847
 C        -1.816967        -1.200677         0.874261
 C        -1.241792        -0.850113        -0.505111
 C        -0.241436         0.218675        -0.157275
 O         0.896396        -0.112472        -0.205425
 O        -0.807093         1.408307         0.177999
 C        -2.215237         1.217976         0.375629
 H        -2.915453         1.262543         3.026326
 H        -2.556107        -0.406340         3.532225
 H        -1.156603         0.620330         2.891877
 H        -3.680371        -1.652540         1.840839
 H        -3.966197        -1.129900         0.046320
 H        -1.149818        -1.796074         1.548229
 H        -0.910899        -1.800910        -0.981493
 H        -2.060162        -0.437212        -1.089961
 H        -2.548297         2.223290         0.678561
 H        -2.773877         1.131247        -0.616217
