19
Iteration:  1004
 C        -2.506863         0.482336         2.969366
 C        -2.532420         0.013324         1.509737
 C        -3.449141        -0.989185         0.907073
 C        -1.900412        -1.235223         0.889574
 C        -1.064305        -1.060596        -0.446565
 C        -0.124575         0.116425        -0.258649
 O         1.033566         0.206538        -0.545238
 O        -0.733051         1.232770         0.146294
 C        -2.201194         1.164941         0.533591
 H        -2.861744         1.497672         3.119954
 H        -3.281344        -0.093678         3.479762
 H        -1.555417         0.285522         3.420230
 H        -3.927888        -1.608546         1.583851
 H        -3.969002        -0.828116        -0.031094
 H        -1.388687        -1.837215         1.563083
 H        -0.472350        -1.999197        -0.655343
 H        -1.714124        -0.775942        -1.320770
 H        -2.167104         2.107802         1.175837
 H        -2.864190         1.354660        -0.282864
