19
Iteration:  2963charge 0 multiplicity 1
 C        -3.385863         0.206455         2.703994
 C        -2.392756         0.087477         1.524975
 C        -2.829799        -0.791484         0.355025
 C        -1.749764        -1.222449         1.179357
 C        -0.415569        -1.100850         0.423980
 C        -0.285459         0.120204        -0.366089
 O         0.224395         0.141692        -1.438534
 O        -0.936363         1.224737         0.076584
 C        -1.534579         1.310265         1.324310
 H        -3.833335         1.247390         2.818331
 H        -4.327258        -0.317623         2.449837
 H        -3.043817        -0.036692         3.689091
 H        -3.810578        -1.063979         0.623485
 H        -2.581933        -0.638429        -0.751500
 H        -1.757404        -1.989212         1.889827
 H         0.427118        -1.231087         1.182184
 H        -0.373750        -1.858997        -0.451980
 H        -0.828002         1.486737         2.151882
 H        -2.123373         2.260400         1.327925
