19
Iteration:   100
 C        -3.370812         0.283278         2.657416
 C        -2.441445         0.067002         1.434157
 C        -2.886857        -0.501972         0.135521
 C        -1.927674        -1.325789         1.012625
 C        -0.528638        -1.331580         0.473187
 C        -0.322003         0.068085        -0.316904
 O        -0.029821         0.141492        -1.455280
 O        -0.519014         1.357192         0.290785
 C        -1.333982         1.200261         1.512483
 H        -4.201893        -0.313407         2.647504
 H        -2.807613         0.129237         3.578116
 H        -3.674465         1.336063         2.653374
 H        -3.917131        -0.732500         0.232996
 H        -2.644122        -0.277137        -0.897097
 H        -2.372829        -2.326774         1.380698
 H         0.239273        -1.421508         1.276945
 H        -0.498590        -2.037450        -0.328287
 H        -0.681914         1.002462         2.320889
 H        -1.689325         2.191580         1.754564
