19
Iteration:  1896
 C        -2.946123         0.151984         2.977307
 C        -2.502709         0.033240         1.494229
 C        -3.234137        -0.632728         0.374473
 C        -1.899351        -1.261963         0.943846
 C        -0.493649        -1.200913         0.526450
 C        -0.226518         0.117315        -0.322991
 O         0.586162         0.124933        -1.261133
 O        -0.851983         1.307000        -0.049238
 C        -1.856000         1.308782         1.025468
 H        -3.209993         1.178971         3.238486
 H        -3.739232        -0.568476         3.275688
 H        -1.990428         0.033211         3.545184
 H        -4.247992        -1.125537         0.629517
 H        -3.379247        -0.102570        -0.578066
 H        -2.115311        -2.032555         1.712843
 H         0.088836        -1.168404         1.371952
 H        -0.181325        -1.961588        -0.134620
 H        -1.191568         1.647582         1.872782
 H        -2.638930         2.037025         0.687192
