19
Iteration:  3940charge 0 multiplicity 1
 C        -3.234657         0.075588         2.972932
 C        -2.504796         0.156922         1.633126
 C        -3.291893        -0.236154         0.406077
 C        -2.085794        -1.125960         0.854197
 C        -0.697958        -1.289624         0.191397
 C        -0.176151         0.047479        -0.426936
 O         0.615388         0.055539        -1.349859
 O        -0.665826         1.136711         0.096087
 C        -1.372688         1.287042         1.343548
 H        -3.560461        -0.938812         3.252552
 H        -2.788410         0.275407         3.969160
 H        -4.198526         0.606219         2.972665
 H        -4.184098        -0.787758         0.641889
 H        -3.274263         0.190044        -0.607859
 H        -2.408360        -2.184286         1.189663
 H        -0.061213        -1.700687         0.956854
 H        -0.700151        -1.959824        -0.709406
 H        -0.620863         1.141568         2.129305
 H        -1.779536         2.338995         1.457287
