19
Iteration:  3996
 C        -3.044094         0.138508         2.889952
 C        -2.483847         0.098532         1.466542
 C        -3.223710        -0.378385         0.207722
 C        -2.081227        -1.249968         0.865651
 C        -0.732758        -1.335203         0.231910
 C        -0.228080         0.091872        -0.286850
 O         0.403067         0.039082        -1.298572
 O        -0.594468         1.320297         0.195602
 C        -1.455191         1.262948         1.423074
 H        -4.135100        -0.102070         2.843910
 H        -2.394782        -0.342113         3.604477
 H        -2.928035         1.209798         3.188064
 H        -4.192392        -0.776746         0.438256
 H        -3.261782         0.280960        -0.681684
 H        -2.433443        -2.143719         1.407201
 H        -0.142001        -1.668978         1.054468
 H        -0.552538        -2.037287        -0.632861
 H        -0.685434         1.072390         2.216118
 H        -1.983545         2.255505         1.521701
