19
Iteration:  2402charge 0 multiplicity 1
 C        -3.078529         0.092265         3.021595
 C        -2.425331         0.111882         1.555638
 C        -3.117402        -0.648080         0.436775
 C        -1.892959        -1.216113         1.079850
 C        -0.562315        -1.226077         0.351853
 C        -0.250496         0.059562        -0.412158
 O         0.641388         0.150383        -1.236023
 O        -0.904565         1.272455        -0.045208
 C        -1.786102         1.412016         1.025379
 H        -4.155508         0.479206         2.989400
 H        -3.193746        -0.996274         3.213210
 H        -2.373427         0.546680         3.724194
 H        -4.074500        -1.147394         0.602639
 H        -3.079569        -0.217676        -0.603216
 H        -2.025236        -1.985733         1.822575
 H         0.196848        -1.493572         1.070527
 H        -0.561189        -1.965009        -0.425977
 H        -1.261730         2.079141         1.747398
 H        -2.659531         1.951664         0.539235
