19
Iteration:  2740
 C        -2.988904         0.216069         2.994715
 C        -2.486702         0.069579         1.593724
 C        -3.171702        -0.556857         0.375476
 C        -1.883167        -1.161522         1.038354
 C        -0.524996        -1.308029         0.284123
 C        -0.179443         0.070882        -0.359693
 O         0.691381         0.296001        -1.161056
 O        -1.030137         1.101153        -0.101804
 C        -1.834361         1.253951         1.096925
 H        -3.576924         1.184177         3.110227
 H        -3.567147        -0.637488         3.342171
 H        -2.167215         0.334758         3.748550
 H        -4.053120        -1.209204         0.422798
 H        -2.922437         0.051792        -0.494276
 H        -2.138328        -2.078596         1.623957
 H         0.317890        -1.681478         1.006009
 H        -0.498801        -2.008422        -0.554129
 H        -1.285439         1.746421         1.883950
 H        -2.619014         1.973212         0.719840
