19
Iteration:  3366charge 0 multiplicity 1
 C        -3.257322         0.221496         2.910947
 C        -2.456051         0.070875         1.586281
 C        -2.908121        -0.365229         0.287401
 C        -1.993284        -1.305512         0.959763
 C        -0.594794        -1.276842         0.353948
 C        -0.246543         0.021165        -0.415867
 O         0.333122         0.152131        -1.508850
 O        -0.695012         1.193642         0.218239
 C        -1.560235         1.254051         1.375242
 H        -3.203799        -0.732016         3.542214
 H        -2.848170         1.019695         3.523151
 H        -4.295002         0.318057         2.635187
 H        -4.025408        -0.526910         0.238858
 H        -2.614594         0.201032        -0.565792
 H        -2.311947        -2.368714         1.167461
 H         0.314035        -1.306597         1.098868
 H        -0.408853        -2.212675        -0.305813
 H        -1.077384         1.559395         2.421039
 H        -2.302840         2.111351         1.088190
