19
Iteration:  3006charge 0 multiplicity 1
 C        -3.312533         0.092192         2.909697
 C        -2.505181         0.101649         1.522270
 C        -3.120409        -0.800435         0.365122
 C        -1.809202        -1.251481         1.016617
 C        -0.460255        -1.009562         0.456397
 C        -0.200420         0.156648        -0.406027
 O         0.327075         0.085718        -1.499588
 O        -0.699995         1.283674         0.105686
 C        -1.595207         1.325868         1.234569
 H        -4.347204         0.589620         2.780051
 H        -3.630706        -0.883838         3.311905
 H        -2.791924         0.614440         3.673266
 H        -3.978044        -1.382540         0.625864
 H        -3.009193        -0.425121        -0.706794
 H        -1.846623        -1.903902         1.834928
 H         0.103683        -0.751276         1.421174
 H         0.039640        -1.994634         0.115942
 H        -1.035131         1.683249         2.122786
 H        -2.260003         2.202792         0.816105
