19
Iteration:  1392charge 0 multiplicity 1
 C        -3.154484         0.283920         2.919781
 C        -2.555747         0.127843         1.504870
 C        -3.151358        -0.718739         0.326498
 C        -1.827668        -1.199307         1.103394
 C        -0.421437        -1.314434         0.440818
 C        -0.132437         0.020205        -0.369552
 O         0.280360         0.181742        -1.484553
 O        -0.589322         1.180353         0.253889
 C        -1.820846         1.391614         1.052966
 H        -4.071578         0.900951         2.973518
 H        -3.510798        -0.708593         3.265094
 H        -2.443670         0.798145         3.630917
 H        -4.126100        -1.066191         0.550542
 H        -3.201616        -0.217342        -0.644948
 H        -1.917257        -2.101980         1.741198
 H         0.304783        -1.278319         1.238795
 H        -0.295964        -2.276867        -0.111159
 H        -1.427891         1.997726         1.839135
 H        -2.356502         2.100409         0.349372
