19
Iteration:   666
 C        -2.996792         0.059605         2.894950
 C        -2.525428         0.212868         1.462999
 C        -3.244436        -0.642516         0.395980
 C        -1.930055        -1.160728         1.072965
 C        -0.494451        -1.173305         0.400515
 C        -0.189307         0.099057        -0.312392
 O         0.664484         0.129214        -1.118204
 O        -1.107859         1.181010        -0.205494
 C        -1.631834         1.351869         1.142309
 H        -3.259443         1.129940         3.340234
 H        -3.770773        -0.792440         2.929179
 H        -2.154334        -0.351087         3.540867
 H        -4.162306        -1.137438         0.628531
 H        -3.257471        -0.291629        -0.628957
 H        -2.024159        -1.988512         1.851445
 H         0.224678        -1.251763         1.230737
 H        -0.324918        -1.978032        -0.342542
 H        -0.689775         1.401121         1.727963
 H        -2.110266         2.375228         1.095746
