19
Iteration:  1025
 C        -2.552850         0.376755         2.970875
 C        -2.453257        -0.018504         1.534945
 C        -3.445535        -0.904722         0.790182
 C        -2.023970        -1.321526         0.935589
 C        -1.016905        -1.131804        -0.169166
 C        -0.082259         0.171363        -0.329846
 O         1.041965         0.208454        -0.724865
 O        -0.780191         1.346650         0.167845
 C        -2.106107         1.199699         0.573173
 H        -3.096226         1.350052         3.086131
 H        -3.144983        -0.288020         3.648016
 H        -1.524178         0.439989         3.384993
 H        -4.192978        -1.328559         1.360163
 H        -3.812545        -0.503860        -0.142401
 H        -1.916571        -2.115592         1.597534
 H        -0.222805        -1.895574        -0.294040
 H        -1.621807        -1.096980        -1.082701
 H        -2.589650         2.161603         0.894814
 H        -2.633242         0.980826        -0.293250
