19
Iteration:  4190
 C        -3.184549         0.197888         2.900413
 C        -2.531146         0.136797         1.613240
 C        -3.117521        -0.403637         0.226181
 C        -2.086658        -1.214979         0.872122
 C        -0.728473        -1.338104         0.106077
 C        -0.211677         0.074245        -0.380677
 O         0.517974         0.098317        -1.363237
 O        -0.699724         1.219724         0.200216
 C        -1.381066         1.239609         1.543314
 H        -3.228703        -0.827199         3.316532
 H        -2.753116         0.902913         3.630510
 H        -4.255903         0.500150         2.857291
 H        -4.159703        -0.684906         0.316565
 H        -3.009145         0.244902        -0.577465
 H        -2.469469        -2.091664         1.372540
 H         0.078577        -1.595937         0.794785
 H        -0.621564        -1.980741        -0.784400
 H        -0.644354         0.963866         2.327003
 H        -1.892045         2.215712         1.674414
