19
Iteration:  3978
 C        -2.989301         0.229260         2.965479
 C        -2.411706         0.090056         1.484923
 C        -3.141479        -0.329115         0.205820
 C        -2.136661        -1.244172         0.800774
 C        -0.741610        -1.265797         0.242157
 C        -0.315531         0.013013        -0.336931
 O         0.450537         0.082042        -1.243933
 O        -0.703559         1.209427         0.261364
 C        -1.487276         1.219554         1.377313
 H        -3.785018        -0.510487         3.107026
 H        -2.062166        -0.110735         3.488500
 H        -3.274100         1.290404         3.022898
 H        -4.225857        -0.643336         0.015943
 H        -2.748416         0.026115        -0.734434
 H        -2.527847        -2.162249         1.124253
 H         0.047533        -1.710209         0.882567
 H        -0.708204        -1.903676        -0.618845
 H        -0.787601         1.381420         2.218267
 H        -1.961220         2.161611         1.238997
