19
Iteration:  4029charge 0 multiplicity 1
 C        -3.367982         0.051606         2.917267
 C        -2.498288         0.182409         1.586057
 C        -3.192451        -0.362019         0.331639
 C        -2.030769        -1.123778         0.988243
 C        -0.711100        -1.197979         0.259495
 C        -0.271828         0.019434        -0.517245
 O         0.527085         0.123068        -1.459713
 O        -0.548628         1.134228         0.152037
 C        -1.368266         1.204825         1.453717
 H        -4.476371        -0.071779         2.715491
 H        -3.121421        -0.858620         3.447099
 H        -3.269702         1.012411         3.455459
 H        -4.155983        -0.850513         0.607028
 H        -3.215236         0.274039        -0.562749
 H        -2.321838        -2.060730         1.437825
 H         0.007734        -1.154332         1.090403
 H        -0.460212        -2.164779        -0.256139
 H        -0.541912         1.201778         2.225744
 H        -1.565088         2.298629         1.413336
