19
Iteration:  2996charge 0 multiplicity 1
 C        -3.411662         0.089793         2.899285
 C        -2.532514         0.120712         1.506679
 C        -3.040371        -0.815784         0.422980
 C        -1.852997        -1.241692         1.117947
 C        -0.420407        -1.053810         0.545537
 C        -0.243944         0.118405        -0.500358
 O         0.358229         0.126779        -1.573574
 O        -0.641177         1.328764         0.075481
 C        -1.625297         1.331351         1.256207
 H        -4.216552         0.862014         2.807653
 H        -3.706393        -0.962122         3.038428
 H        -2.798546         0.356001         3.736652
 H        -3.952645        -1.316374         0.706500
 H        -3.145945        -0.548979        -0.661721
 H        -1.995418        -2.155513         1.643357
 H         0.352992        -0.837201         1.366453
 H        -0.000571        -1.924677        -0.090170
 H        -0.988531         1.425596         2.149125
 H        -2.254617         2.267847         1.169777
