19
Iteration:  2803
 C        -3.250114         0.276732         2.909093
 C        -2.536683         0.054453         1.531562
 C        -3.232485        -0.884698         0.627607
 C        -1.883466        -1.304684         1.126989
 C        -0.598487        -1.190738         0.204634
 C        -0.177784         0.195194        -0.443314
 O         0.756375         0.286514        -1.246315
 O        -0.916751         1.299333        -0.108310
 C        -1.578640         1.244631         1.140596
 H        -3.930190         1.076084         2.888134
 H        -3.778493        -0.645091         3.177403
 H        -2.474799         0.539802         3.701683
 H        -4.180890        -1.391945         0.899119
 H        -3.317099        -0.621478        -0.455823
 H        -1.982278        -2.114720         1.857567
 H         0.232916        -1.509967         0.788171
 H        -0.697998        -1.856725        -0.633642
 H        -0.829168         1.349974         1.982137
 H        -2.139221         2.156032         1.184630
