19
Iteration:  4779charge 0 multiplicity 1
 C        -3.269172         0.166645         2.776445
 C        -2.389575         0.107582         1.644735
 C        -3.127862        -0.327212         0.379979
 C        -1.935349        -1.225899         0.921705
 C        -0.596722        -1.245460         0.190035
 C        -0.283951         0.024361        -0.380667
 O         0.365164         0.114242        -1.436738
 O        -0.612295         1.146080         0.224038
 C        -1.502036         1.210648         1.417327
 H        -3.913551         1.163884         2.735028
 H        -4.062548        -0.617535         3.013014
 H        -2.746988         0.345941         3.797807
 H        -4.193853        -0.719457         0.386728
 H        -2.968711         0.357270        -0.460910
 H        -2.259022        -2.129368         1.490939
 H         0.098228        -1.515077         0.960564
 H        -0.607173        -2.105429        -0.509361
 H        -0.823055         1.422662         2.204894
 H        -2.066539         2.135802         1.276754
