19
Iteration:  2668
 C        -3.181866         0.143293         2.897937
 C        -2.511078         0.151991         1.444284
 C        -3.156132        -0.813098         0.368847
 C        -1.853604        -1.155839         1.112823
 C        -0.540002        -1.216917         0.335772
 C        -0.314394         0.107962        -0.414784
 O         0.580406         0.139211        -1.244984
 O        -0.931326         1.282141        -0.060118
 C        -1.567622         1.374442         1.243857
 H        -3.813393         0.988283         3.227593
 H        -3.552444        -0.874483         3.038832
 H        -2.379545         0.305628         3.654454
 H        -4.041588        -1.250026         0.685940
 H        -2.865745        -0.646336        -0.710145
 H        -1.953589        -1.794935         1.997512
 H         0.288186        -1.224957         0.979318
 H        -0.452061        -2.132851        -0.301983
 H        -0.748659         1.499965         2.012022
 H        -2.138178         2.328342         1.311794
