19
Iteration:  3147charge 0 multiplicity 1
 C        -3.058445         0.229754         2.962751
 C        -2.471701         0.071675         1.561099
 C        -3.007768        -0.682595         0.282603
 C        -1.882494        -1.258555         0.991523
 C        -0.607999        -1.320870         0.197094
 C        -0.240700         0.060218        -0.273227
 O         0.530555         0.187963        -1.195678
 O        -0.917700         1.277024         0.034096
 C        -1.728883         1.402705         1.208761
 H        -2.333925        -0.276192         3.741356
 H        -2.968876         1.310155         3.229710
 H        -4.117237        -0.024775         3.019036
 H        -4.020234        -1.231846         0.390998
 H        -2.788952        -0.316920        -0.686201
 H        -2.060222        -2.129414         1.596996
 H         0.240619        -1.743418         0.624419
 H        -0.814837        -2.014473        -0.678197
 H        -1.204704         1.764322         2.096261
 H        -2.523497         2.235056         0.975533
