19
Iteration:  1919charge 0 multiplicity 1
 C        -2.999444         0.202605         2.918934
 C        -2.416345         0.057739         1.598003
 C        -3.133693        -0.698459         0.382754
 C        -1.871677        -1.266565         1.037746
 C        -0.567472        -1.177317         0.335492
 C        -0.213876         0.120229        -0.292940
 O         0.590151         0.102526        -1.189846
 O        -0.984337         1.234295        -0.082813
 C        -1.792497         1.399650         1.104278
 H        -3.437963         1.217885         3.079674
 H        -3.745925        -0.615169         3.009648
 H        -2.202245         0.120876         3.693850
 H        -4.176725        -0.945612         0.383439
 H        -2.768282        -0.205815        -0.573745
 H        -2.111494        -2.285031         1.491679
 H         0.222932        -1.343357         0.997236
 H        -0.535520        -1.836560        -0.486840
 H        -1.077280         1.868142         1.834730
 H        -2.683185         2.016322         0.812332
