19
Iteration:  1755
 C        -3.229027         0.168741         2.757020
 C        -2.536468         0.029805         1.460031
 C        -3.049563        -0.790070         0.384187
 C        -1.846418        -1.288160         1.115937
 C        -0.505328        -0.987695         0.516440
 C        -0.318309         0.075516        -0.404728
 O         0.297101         0.057022        -1.431737
 O        -0.686063         1.366884         0.050793
 C        -1.536691         1.313714         1.261703
 H        -3.940534         1.011346         2.766241
 H        -3.912493        -0.676643         2.977007
 H        -2.526478         0.463207         3.572091
 H        -4.112731        -1.050265         0.601866
 H        -2.933117        -0.442083        -0.607818
 H        -1.910829        -2.183684         1.711255
 H         0.144671        -0.641996         1.500634
 H        -0.113114        -1.883824         0.071122
 H        -0.779456         1.208568         2.011157
 H        -2.195183         2.187384         1.281940
