19
Iteration:  4620
 C        -3.156634         0.073707         2.855140
 C        -2.413876         0.188318         1.534587
 C        -3.234756        -0.501612         0.414855
 C        -2.104669        -1.235731         1.063042
 C        -0.768869        -1.199193         0.149158
 C        -0.218715         0.122798        -0.440305
 O         0.587735         0.061903        -1.295904
 O        -0.706942         1.277441         0.073345
 C        -1.443773         1.250948         1.386311
 H        -3.871199         0.887288         2.972172
 H        -3.636609        -0.886482         2.706316
 H        -2.442681        -0.064213         3.671025
 H        -4.302183        -0.569623         0.706383
 H        -2.954349        -0.048268        -0.580107
 H        -2.137713        -2.216650         1.663844
 H         0.026448        -1.531303         0.862937
 H        -0.765589        -1.929948        -0.685614
 H        -0.675872         1.333976         2.175601
 H        -1.994383         2.245754         1.401779
