19
Iteration:  2415charge 0 multiplicity 1
 C        -3.168549         0.181338         2.994539
 C        -2.505849         0.129229         1.658516
 C        -3.121285        -0.636149         0.486160
 C        -1.821853        -1.209616         1.020871
 C        -0.492993        -1.230484         0.299637
 C        -0.174868         0.063575        -0.375468
 O         0.567760         0.216433        -1.301983
 O        -0.814745         1.118655        -0.033576
 C        -1.859525         1.379116         1.042363
 H        -4.114395         0.783104         3.049490
 H        -3.377540        -0.816576         3.431538
 H        -2.658253         0.640861         3.812620
 H        -3.864639        -1.289415         0.658600
 H        -3.076159        -0.161144        -0.471101
 H        -2.071465        -2.190203         1.438932
 H         0.486773        -1.457109         0.828745
 H        -0.525856        -1.992634        -0.501364
 H        -1.352188         1.842335         1.840628
 H        -2.512096         2.193736         0.647695
