19
Iteration:  2742
 C        -2.983471         0.210569         3.005192
 C        -2.495204         0.064924         1.561028
 C        -3.176700        -0.565280         0.378231
 C        -1.873933        -1.168267         1.059506
 C        -0.523475        -1.300865         0.284027
 C        -0.189919         0.070797        -0.349219
 O         0.687040         0.296775        -1.155563
 O        -1.019734         1.106922        -0.126426
 C        -1.832247         1.265334         1.118966
 H        -3.632119         1.215510         3.028174
 H        -3.628469        -0.612083         3.360828
 H        -2.157893         0.280704         3.741965
 H        -4.005134        -1.150010         0.470152
 H        -2.867056         0.018537        -0.502036
 H        -2.148058        -2.081255         1.630398
 H         0.334809        -1.724951         0.952514
 H        -0.561747        -2.000651        -0.600141
 H        -1.246860         1.707680         1.909242
 H        -2.626614         1.999607         0.715208
