19
Iteration:  4100charge 0 multiplicity 1
 C        -3.218267         0.176347         2.879004
 C        -2.497381         0.124345         1.471684
 C        -3.094969        -0.396389         0.181836
 C        -2.122710        -1.277947         0.929725
 C        -0.649718        -1.207112         0.388437
 C        -0.269352         0.067388        -0.398788
 O         0.337959         0.143031        -1.450969
 O        -0.603048         1.254471         0.228158
 C        -1.352903         1.125306         1.472203
 H        -4.301119         0.005027         2.815712
 H        -2.628004        -0.587788         3.517887
 H        -2.967732         1.228637         3.038565
 H        -4.128214        -0.660276         0.259706
 H        -2.882956        -0.057087        -0.858279
 H        -2.564503        -2.258379         1.341423
 H        -0.004345        -1.168501         1.272926
 H        -0.424642        -2.125108        -0.107784
 H        -0.582860         0.791064         2.284293
 H        -1.574616         2.170046         1.794862
