19
Iteration:  2442
 C        -3.232352         0.359639         2.827395
 C        -2.435042         0.044113         1.601088
 C        -3.168452        -0.792123         0.456947
 C        -1.858725        -1.271487         1.117406
 C        -0.500311        -1.201495         0.325339
 C        -0.210267         0.142149        -0.476567
 O         0.575767         0.220564        -1.442468
 O        -0.831010         1.226967         0.076928
 C        -1.728792         1.252297         1.268257
 H        -3.985437         1.109295         2.705814
 H        -3.830475        -0.455744         3.248017
 H        -2.658032         0.670359         3.738384
 H        -4.074751        -1.460647         0.762431
 H        -3.036855        -0.585483        -0.644441
 H        -1.903160        -2.098561         1.841402
 H         0.453769        -1.386477         0.847642
 H        -0.588579        -2.010617        -0.445421
 H        -1.089235         1.585688         2.163405
 H        -2.352869         2.115206         1.074912
