19
Iteration:  3154charge 0 multiplicity 1
 C        -3.051727         0.209208         2.933984
 C        -2.429824         0.072710         1.536693
 C        -3.056542        -0.639745         0.246394
 C        -1.851110        -1.249082         1.092804
 C        -0.667379        -1.263955         0.219326
 C        -0.220699         0.052509        -0.293358
 O         0.513590         0.198153        -1.203234
 O        -0.852776         1.235268         0.033792
 C        -1.800059         1.369605         1.200832
 H        -2.332895        -0.207197         3.621792
 H        -3.178945         1.236111         3.243415
 H        -4.030786        -0.294471         3.186249
 H        -3.999332        -1.094506         0.550004
 H        -2.885297        -0.225472        -0.777471
 H        -2.029264        -2.279341         1.466328
 H         0.266631        -1.713181         0.782487
 H        -0.687016        -1.869654        -0.675261
 H        -1.063888         1.812528         1.941833
 H        -2.466805         2.125810         1.022941
