19
Iteration:  1930charge 0 multiplicity 1
 C        -3.112453         0.191515         2.965201
 C        -2.428552         0.111412         1.540312
 C        -3.074080        -0.672920         0.388053
 C        -1.842114        -1.258165         1.104179
 C        -0.582140        -1.253239         0.274180
 C        -0.306589         0.077568        -0.402645
 O         0.650376         0.176761        -1.170301
 O        -0.981499         1.222150        -0.102518
 C        -1.751686         1.358933         1.119972
 H        -3.681521         1.145236         3.077364
 H        -3.807754        -0.614822         3.265477
 H        -2.317268         0.162712         3.741043
 H        -4.056623        -1.036093         0.592902
 H        -2.966994        -0.148770        -0.620771
 H        -1.810094        -1.977534         1.973089
 H         0.236815        -1.487971         0.881158
 H        -0.521429        -1.992802        -0.488203
 H        -1.039431         1.641430         1.942304
 H        -2.329709         2.301123         1.012395
