19
Iteration:  3172
 C        -3.059997         0.091619         2.883050
 C        -2.499882         0.084203         1.540741
 C        -3.185596        -0.597154         0.430344
 C        -1.956253        -1.226113         1.042186
 C        -0.599183        -1.202179         0.321084
 C        -0.218584         0.107947        -0.424928
 O         0.590019         0.170553        -1.291662
 O        -0.800519         1.258831         0.091951
 C        -1.689459         1.293057         1.147969
 H        -2.279735         0.177337         3.629909
 H        -3.737606         0.982841         3.025665
 H        -3.722955        -0.770157         2.965969
 H        -4.125577        -1.018083         0.515869
 H        -2.897572        -0.158097        -0.559237
 H        -2.068380        -1.987355         1.851759
 H         0.309407        -1.459237         0.899046
 H        -0.637429        -2.032496        -0.393416
 H        -1.295124         1.720229         2.074944
 H        -2.426971         2.098180         0.787353
