19
Iteration:   268
 C        -2.937213         0.117583         2.852485
 C        -2.427061         0.128954         1.469649
 C        -3.486292        -0.640068         0.637563
 C        -2.043695        -1.167649         0.898272
 C        -0.902950        -1.197157        -0.044899
 C        -0.155004         0.063592        -0.310240
 O         0.892859         0.094215        -0.832514
 O        -0.849319         1.278644        -0.109487
 C        -1.526346         1.372176         1.119252
 H        -3.945784         0.544472         2.827806
 H        -2.972199        -0.870173         3.283134
 H        -2.405195         0.760614         3.557553
 H        -4.225262        -1.232624         1.209617
 H        -3.962158        -0.401066        -0.363742
 H        -2.030423        -2.052394         1.641302
 H        -0.240857        -1.931989         0.352164
 H        -1.263640        -1.538128        -1.054395
 H        -0.733052         1.260963         1.836544
 H        -1.923188         2.408708         1.210815
