19
Iteration:   895charge 0 multiplicity 1
 C        -2.060289         0.254863         2.957349
 C        -2.402691         0.035003         1.440909
 C        -3.549423        -0.843815         0.917716
 C        -2.096941        -1.242983         0.708428
 C        -1.045930        -1.128531        -0.395062
 C        -0.138222         0.173060        -0.128073
 O         1.036950         0.200790        -0.160535
 O        -0.914860         1.303072        -0.071724
 C        -2.311138         1.222221         0.379726
 H        -2.994701         0.376187         3.469413
 H        -1.647255        -0.647451         3.373019
 H        -1.471524         1.074709         3.225678
 H        -4.107735        -1.406957         1.695891
 H        -4.157168        -0.413790         0.198860
 H        -1.821741        -1.935275         1.493001
 H        -0.446522        -2.096744        -0.436065
 H        -1.442871        -0.969023        -1.463748
 H        -2.323455         2.191419         0.982822
 H        -3.033356         1.169777        -0.473217
