19
Iteration:  1762
 C        -3.310566         0.203402         2.707215
 C        -2.549832         0.032809         1.492533
 C        -3.116696        -0.827148         0.407942
 C        -1.819028        -1.250512         1.135026
 C        -0.473435        -1.024220         0.531621
 C        -0.279500         0.133965        -0.453549
 O         0.362834         0.030341        -1.502178
 O        -0.759927         1.394205         0.089925
 C        -1.493942         1.237680         1.299996
 H        -3.945197         1.091780         2.626609
 H        -3.838156        -0.663660         3.132747
 H        -2.487890         0.495400         3.400129
 H        -4.103163        -1.066918         0.771876
 H        -3.043545        -0.278522        -0.593853
 H        -1.840393        -2.052592         1.867282
 H         0.191862        -0.845365         1.286632
 H        -0.053839        -1.873128        -0.058407
 H        -0.738325         1.161771         2.133036
 H        -2.038994         2.202241         1.456646
