19
Iteration:  1655
 C        -3.288811         0.273319         2.749646
 C        -2.458677         0.040670         1.499001
 C        -3.118820        -0.812176         0.371861
 C        -1.814885        -1.208919         1.144297
 C        -0.481218        -1.040812         0.516588
 C        -0.304833         0.099000        -0.431574
 O         0.384147         0.085026        -1.403532
 O        -0.869217         1.334128        -0.024219
 C        -1.443333         1.214758         1.296674
 H        -4.008174         1.073497         2.615410
 H        -3.852425        -0.636214         3.057788
 H        -2.760083         0.485627         3.717217
 H        -4.121931        -1.089395         0.715918
 H        -3.317143        -0.639063        -0.729051
 H        -1.857097        -2.130659         1.672007
 H         0.382238        -0.858624         1.354115
 H        -0.099002        -1.892410        -0.093036
 H        -0.702094         0.987413         2.082433
 H        -1.743385         2.243090         1.569546
