19
Iteration:  3645charge 0 multiplicity 1
 C        -3.109210         0.186118         2.943600
 C        -2.478842         0.105737         1.510961
 C        -3.184540        -0.259145         0.281930
 C        -2.149612        -1.182642         0.771972
 C        -0.746228        -1.249771         0.312893
 C        -0.198220         0.004680        -0.403280
 O         0.385286         0.101501        -1.447054
 O        -0.535042         1.128066         0.269745
 C        -1.423886         1.188979         1.442513
 H        -3.579365        -0.764429         3.136815
 H        -2.465883         0.507980         3.782983
 H        -3.923998         0.910134         3.123187
 H        -4.180274        -0.703792         0.186975
 H        -2.968065         0.183685        -0.714075
 H        -2.530479        -2.011703         1.319037
 H         0.008066        -1.422651         1.166943
 H        -0.468249        -2.155046        -0.279747
 H        -0.774992         1.160342         2.322842
 H        -1.990777         2.129860         1.348901
