19
Iteration:  4600
 C        -3.206547         0.208566         2.978805
 C        -2.476053         0.087426         1.559954
 C        -3.265219        -0.486371         0.357710
 C        -2.023790        -1.197819         0.911526
 C        -0.683955        -1.224558         0.154678
 C        -0.224704         0.027075        -0.474084
 O         0.571648         0.141526        -1.334201
 O        -0.681812         1.248809         0.162224
 C        -1.470210         1.189307         1.374926
 H        -3.914548         1.075545         2.812084
 H        -3.697199        -0.679908         3.466618
 H        -2.453487         0.624273         3.740077
 H        -4.116927        -1.094215         0.673437
 H        -3.102566         0.032254        -0.564951
 H        -2.304157        -2.208217         1.333256
 H         0.101983        -1.510275         0.825844
 H        -0.786383        -2.038609        -0.549486
 H        -0.762953         1.085225         2.134375
 H        -1.751970         2.264358         1.403064
