19
Iteration:  4630
 C        -3.131249        -0.032119         2.810396
 C        -2.387293         0.103852         1.545821
 C        -3.245454        -0.443607         0.409255
 C        -2.013550        -1.170028         1.051042
 C        -0.791790        -1.228599         0.207196
 C        -0.265712         0.042525        -0.349100
 O         0.586326         0.069562        -1.291250
 O        -0.736025         1.334420         0.059832
 C        -1.420811         1.349453         1.309531
 H        -3.687394         0.849951         3.076607
 H        -3.907605        -0.776416         2.862340
 H        -2.566009        -0.143079         3.706853
 H        -4.325993        -0.650084         0.620881
 H        -3.034196        -0.118337        -0.676036
 H        -2.430246        -2.072673         1.617726
 H         0.117235        -1.669158         0.759703
 H        -0.979862        -1.940730        -0.633528
 H        -0.616124         1.259629         2.152451
 H        -1.857962         2.382000         1.293497
