19
Iteration:  3795
 C        -3.199444         0.047604         2.794172
 C        -2.425068         0.222195         1.565422
 C        -3.079745        -0.345425         0.197834
 C        -2.035778        -1.080023         0.969234
 C        -0.721760        -1.313609         0.314466
 C        -0.237025         0.044282        -0.342894
 O         0.330181        -0.012820        -1.380005
 O        -0.700831         1.239488         0.156554
 C        -1.287066         1.273714         1.451838
 H        -4.176070        -0.378068         2.664453
 H        -2.703246        -0.720268         3.444000
 H        -3.456505         0.907648         3.411356
 H        -4.070661        -0.694661         0.314210
 H        -3.086008         0.381491        -0.650792
 H        -2.290737        -1.968624         1.466130
 H         0.026518        -1.655902         0.975342
 H        -0.873637        -2.037715        -0.437827
 H        -0.683297         1.054250         2.328300
 H        -1.684285         2.339438         1.544819
