19
Iteration:  2674charge 0 multiplicity 1
 C        -3.108769         0.086746         2.910258
 C        -2.557333         0.176816         1.449808
 C        -3.158581        -0.823402         0.373577
 C        -1.927742        -1.156393         1.094978
 C        -0.557061        -1.130543         0.338234
 C        -0.292600         0.128715        -0.380974
 O         0.590362         0.099802        -1.219136
 O        -0.905906         1.301939        -0.110418
 C        -1.567237         1.366142         1.250089
 H        -3.935066         0.836202         3.001644
 H        -3.467672        -0.933533         3.127983
 H        -2.191578         0.231965         3.493099
 H        -4.148679        -1.219155         0.804377
 H        -2.980528        -0.826557        -0.667031
 H        -1.944289        -1.786089         2.001801
 H         0.284979        -1.256285         1.146430
 H        -0.434410        -1.971521        -0.328906
 H        -0.740368         1.442774         1.938833
 H        -2.129218         2.321850         1.202393
