19
Iteration:  3331charge 0 multiplicity 1
 C        -3.150205         0.114875         2.794879
 C        -2.473162         0.169699         1.434906
 C        -3.100650        -0.561419         0.265002
 C        -1.942576        -1.213701         0.981309
 C        -0.608762        -1.191868         0.376666
 C        -0.183453         0.066810        -0.284330
 O         0.245116         0.075860        -1.451315
 O        -0.649878         1.289107         0.210844
 C        -1.505071         1.268952         1.394352
 H        -3.759817        -0.799561         2.859353
 H        -2.545162         0.215761         3.696506
 H        -3.846024         0.976699         2.880331
 H        -4.090218        -0.908171         0.474849
 H        -2.943477        -0.074532        -0.759437
 H        -2.200584        -2.105630         1.523212
 H         0.129039        -1.469993         1.216421
 H        -0.538182        -1.989323        -0.441035
 H        -0.913225         1.253303         2.401797
 H        -2.011050         2.262082         1.326679
