19
Iteration:  3405
 C        -3.264867         0.103901         2.788133
 C        -2.507313         0.219219         1.524461
 C        -3.174840        -0.488421         0.371608
 C        -1.995245        -1.181309         0.926124
 C        -0.589921        -1.179725         0.337420
 C        -0.255601         0.100573        -0.402131
 O         0.422242         0.027631        -1.444716
 O        -0.717042         1.299195         0.180372
 C        -1.327262         1.199056         1.416586
 H        -2.560897        -0.296481         3.505305
 H        -3.763884         1.025502         3.121785
 H        -4.178108        -0.554311         2.777779
 H        -4.098329        -0.923109         0.735075
 H        -3.259508        -0.246207        -0.733284
 H        -2.317572        -2.060628         1.439572
 H         0.052203        -1.333179         1.154754
 H        -0.464017        -2.010837        -0.340368
 H        -0.582603         0.786136         2.056338
 H        -1.490120         2.149879         1.847609
