19
Iteration:   441charge 0 multiplicity 1
 C        -3.312605         0.291927         2.911114
 C        -2.472564         0.031992         1.649562
 C        -3.118421        -0.550418         0.404371
 C        -1.856922        -1.224594         1.011987
 C        -0.524293        -1.224207         0.300665
 C        -0.195966         0.090850        -0.461134
 O         0.584325         0.149381        -1.357949
 O        -0.909801         1.199234         0.004148
 C        -1.568829         1.206939         1.326794
 H        -4.035009        -0.457466         2.826690
 H        -2.879079         0.509420         3.948962
 H        -3.922534         1.243745         2.675231
 H        -4.066619        -1.123246         0.561891
 H        -2.987634         0.008143        -0.502004
 H        -2.054250        -2.151464         1.536908
 H         0.323148        -1.513059         0.947871
 H        -0.547498        -2.002921        -0.453517
 H        -0.719293         1.288110         2.040843
 H        -2.066989         2.186646         1.242990
