19
Iteration:  4489
 C        -3.265854         0.131785         2.862607
 C        -2.414686         0.078472         1.566625
 C        -3.022067        -0.318463         0.200152
 C        -1.991363        -1.233738         0.925045
 C        -0.534165        -1.213931         0.427879
 C        -0.275618         0.013269        -0.429040
 O         0.244007         0.109040        -1.461829
 O        -0.652751         1.177067         0.184657
 C        -1.460215         1.246428         1.425802
 H        -3.340180         1.183904         3.362922
 H        -4.301713        -0.267011         2.708131
 H        -2.711727        -0.510576         3.667250
 H        -4.044899        -0.640642         0.266315
 H        -2.864861         0.396244        -0.648993
 H        -2.354537        -2.238554         1.317880
 H         0.171067        -1.012863         1.204156
 H        -0.294672        -2.185123        -0.022814
 H        -0.828624         1.136769         2.327046
 H        -2.084300         2.148806         1.385286
