19
Iteration:  2240charge 0 multiplicity 1
 C        -3.137422         0.190850         2.930489
 C        -2.489526         0.030459         1.529049
 C        -3.189217        -0.661242         0.406070
 C        -1.852883        -1.203387         0.940187
 C        -0.423156        -1.131152         0.459675
 C        -0.206141         0.097853        -0.399835
 O         0.474669         0.089443        -1.413989
 O        -0.769538         1.256900         0.074600
 C        -1.800838         1.324562         1.213945
 H        -4.030941         0.870913         2.733526
 H        -3.573445        -0.729554         3.347169
 H        -2.506070         0.675399         3.667683
 H        -4.125496        -1.287525         0.550528
 H        -3.283090        -0.335299        -0.605148
 H        -1.821454        -1.993521         1.671158
 H         0.345365        -1.210195         1.339416
 H        -0.097487        -1.961857        -0.275814
 H        -1.085554         1.681891         2.041060
 H        -2.672606         2.010414         0.887507
