19
Iteration:  2200
 C        -3.237428         0.153285         2.852616
 C        -2.425445         0.105143         1.521419
 C        -2.972700        -0.732527         0.275518
 C        -1.889128        -1.253573         1.090522
 C        -0.407671        -1.223932         0.495497
 C        -0.313277         0.089768        -0.386577
 O         0.251275         0.124289        -1.475628
 O        -0.691205         1.315328         0.173853
 C        -1.694430         1.395814         1.198225
 H        -4.272530         0.387838         2.731919
 H        -3.061560        -0.753364         3.486877
 H        -2.941160         0.963199         3.582343
 H        -4.003378        -1.117902         0.177909
 H        -2.563273        -0.356224        -0.650664
 H        -2.173377        -1.879948         1.974736
 H         0.316176        -1.353861         1.202479
 H        -0.302866        -2.054758        -0.215095
 H        -1.192595         1.600940         2.131626
 H        -2.249484         2.162172         0.723501
