19
Iteration:  1040charge 0 multiplicity 1
 C        -2.569289         0.288061         3.023107
 C        -2.498680         0.092116         1.461920
 C        -3.462928        -0.849976         0.761745
 C        -2.002933        -1.263913         0.954161
 C        -0.911762        -1.168126        -0.109320
 C        -0.175286         0.183671        -0.222582
 O         0.888114         0.215671        -0.810575
 O        -0.638092         1.353763         0.184317
 C        -2.107230         1.168603         0.503438
 H        -3.252978         1.077458         3.269780
 H        -2.799303        -0.641825         3.501951
 H        -1.645262         0.561560         3.478086
 H        -4.215672        -1.535508         1.293639
 H        -3.864609        -0.588834        -0.235477
 H        -1.928814        -2.124496         1.690795
 H        -0.145005        -1.985590         0.170389
 H        -1.201839        -1.520713        -1.171749
 H        -2.320783         2.167754         0.998045
 H        -2.631439         1.123161        -0.532139
