19
Iteration:  3240
 C        -3.151059         0.179262         2.866664
 C        -2.450414         0.106650         1.547387
 C        -3.022634        -0.539272         0.223708
 C        -1.951397        -1.272861         1.014661
 C        -0.557102        -1.204755         0.400395
 C        -0.344369         0.050024        -0.399663
 O         0.465140         0.205873        -1.314031
 O        -0.924985         1.193888         0.079589
 C        -1.460780         1.283968         1.320013
 H        -3.564913         1.137445         2.930317
 H        -3.977142        -0.538190         3.018930
 H        -2.372088        -0.039835         3.632425
 H        -4.087965        -0.900421         0.307733
 H        -2.754338        -0.207795        -0.748255
 H        -2.283066        -2.209365         1.526641
 H         0.250126        -1.429907         1.155676
 H        -0.447736        -1.954328        -0.351101
 H        -0.721339         1.498903         2.153748
 H        -2.197174         2.051577         1.333141
