19
Iteration:  3504
 C        -3.144102         0.029147         2.889750
 C        -2.422600         0.123776         1.513459
 C        -3.248154        -0.446759         0.324697
 C        -2.136488        -1.235189         1.001381
 C        -0.833892        -1.196635         0.201618
 C        -0.289526         0.097785        -0.447840
 O         0.598636         0.030791        -1.313679
 O        -0.621161         1.286213         0.142809
 C        -1.365193         1.339133         1.366262
 H        -3.550022         1.046208         3.091350
 H        -3.960849        -0.724674         3.047718
 H        -2.380350        -0.196856         3.721277
 H        -4.393297        -0.580526         0.484563
 H        -3.080758        -0.260818        -0.726972
 H        -2.510485        -1.988354         1.696208
 H        -0.056928        -1.414846         0.927938
 H        -0.719217        -1.992280        -0.554421
 H        -0.714257         1.199068         2.274972
 H        -1.746967         2.344977         1.463203
