19
Iteration:  1684charge 0 multiplicity 1
 C        -3.267656         0.053732         2.849509
 C        -2.440682         0.085133         1.590469
 C        -2.998378        -0.625569         0.304511
 C        -1.819261        -1.176739         1.119232
 C        -0.476921        -1.105380         0.617299
 C        -0.205284         0.022011        -0.394491
 O         0.314583         0.041026        -1.521967
 O        -0.771140         1.281610        -0.042354
 C        -1.697277         1.414326         1.270557
 H        -3.805652         1.026420         2.918985
 H        -4.036006        -0.719419         2.830184
 H        -2.652236        -0.000877         3.750144
 H        -4.019256        -1.057467         0.473807
 H        -2.780695        -0.220493        -0.684982
 H        -2.061864        -2.115733         1.708007
 H         0.163213        -0.891692         1.392525
 H        -0.127022        -2.057847         0.132014
 H        -1.047719         1.600241         2.152131
 H        -2.225418         2.300642         0.947926
