19
Iteration:   693charge 0 multiplicity 1
 C        -2.853464         0.081962         3.052166
 C        -2.508440         0.134147         1.551716
 C        -3.322830        -0.648410         0.417121
 C        -2.052570        -1.239776         0.992200
 C        -0.651265        -1.160333         0.360917
 C        -0.216169         0.072746        -0.412505
 O         0.839570         0.148196        -1.076203
 O        -0.871252         1.256787        -0.160011
 C        -1.856969         1.363231         0.992927
 H        -3.597280         0.759724         3.297850
 H        -2.987605        -0.962078         3.278259
 H        -1.997761         0.257115         3.737441
 H        -4.287133        -1.210614         0.702054
 H        -3.435675        -0.141255        -0.548246
 H        -2.083284        -2.121085         1.608781
 H         0.097557        -1.228545         1.211561
 H        -0.563107        -1.984660        -0.365744
 H        -1.225647         1.935121         1.681381
 H        -2.628638         2.014913         0.605976
