19
Iteration:  1323
 C        -3.283165         0.330733         2.821962
 C        -2.484930         0.082611         1.485830
 C        -3.058729        -0.798934         0.422969
 C        -1.786151        -1.090227         1.197272
 C        -0.474185        -1.230998         0.377202
 C        -0.137169         0.029547        -0.352420
 O         0.295035         0.177889        -1.496440
 O        -0.650320         1.197785         0.143263
 C        -1.727674         1.271358         1.175569
 H        -3.621935         1.414343         3.050117
 H        -4.253136        -0.203677         2.724476
 H        -2.668814         0.058292         3.724166
 H        -4.050256        -1.162112         0.757115
 H        -3.093773        -0.357404        -0.584941
 H        -2.031084        -1.996649         1.703815
 H         0.310723        -1.515311         0.986905
 H        -0.578850        -2.010949        -0.376884
 H        -1.311244         1.623874         2.240950
 H        -2.347246         2.046372         0.768698
