19
Iteration:  3533charge 0 multiplicity 1
 C        -3.042753         0.172019         2.896791
 C        -2.455907         0.110059         1.482830
 C        -3.279198        -0.417396         0.334229
 C        -2.052515        -1.168619         0.872908
 C        -0.747343        -1.274310         0.146931
 C        -0.220285         0.067904        -0.299085
 O         0.503101         0.042094        -1.239410
 O        -0.703703         1.284288         0.154612
 C        -1.416462         1.200644         1.328507
 H        -3.990476         0.676322         2.812295
 H        -3.295647        -0.761246         3.434082
 H        -2.348630         0.746330         3.511073
 H        -4.339462        -0.647393         0.500043
 H        -3.214014         0.156507        -0.575959
 H        -2.576608        -1.949233         1.363712
 H        -0.006078        -1.722400         0.948682
 H        -0.672762        -1.964609        -0.678095
 H        -0.787926         0.733744         2.129626
 H        -1.741826         2.264729         1.641464
