19
Iteration:  4385charge 0 multiplicity 1
 C        -3.278433         0.112367         2.834435
 C        -2.377747         0.093541         1.638617
 C        -3.032777        -0.342109         0.284896
 C        -1.990439        -1.202642         0.922939
 C        -0.682228        -1.277378         0.212206
 C        -0.209054         0.088786        -0.335391
 O         0.405483         0.078426        -1.409235
 O        -0.769233         1.207087         0.122865
 C        -1.391497         1.244905         1.469058
 H        -4.348116         0.523170         2.724011
 H        -3.584894        -0.843654         3.373025
 H        -2.984302         0.690643         3.734059
 H        -4.052693        -0.673188         0.312750
 H        -2.852976         0.367277        -0.545393
 H        -2.119863        -2.172569         1.346710
 H         0.009273        -1.672364         1.037897
 H        -0.743587        -2.024240        -0.596118
 H        -0.756715         1.444997         2.372619
 H        -1.956128         2.217654         1.385353
