19
Iteration:  2159
 C        -3.460361         0.178366         2.698963
 C        -2.449199         0.105481         1.529373
 C        -3.037417        -0.822888         0.390421
 C        -1.777184        -1.219536         1.217484
 C        -0.409888        -1.138025         0.479278
 C        -0.271035         0.130879        -0.445388
 O         0.232755         0.087642        -1.565857
 O        -0.748582         1.348878         0.113013
 C        -1.437452         1.308970         1.333821
 H        -4.379833         0.481919         2.223851
 H        -3.551556        -0.866762         3.031548
 H        -3.279835         0.836564         3.579902
 H        -4.029074        -1.157897         0.666770
 H        -2.886095        -0.344655        -0.578820
 H        -1.924788        -2.075175         1.922064
 H         0.404965        -0.917414         1.310104
 H        -0.168959        -1.997249        -0.109688
 H        -0.618815         1.292631         2.099116
 H        -1.967652         2.284817         1.531132
