19
Iteration:  3924charge 0 multiplicity 1
 C        -3.296273        -0.011593         2.899677
 C        -2.386676         0.211163         1.587363
 C        -3.315678        -0.351602         0.465710
 C        -2.085391        -1.095049         0.877200
 C        -0.797867        -1.166591         0.158484
 C        -0.134588         0.033016        -0.395003
 O         0.606765        -0.032454        -1.317184
 O        -0.700352         1.255035         0.036585
 C        -1.298116         1.202722         1.409433
 H        -3.474145        -1.088569         2.866932
 H        -2.811030         0.564695         3.698897
 H        -4.244104         0.592572         2.821676
 H        -4.329477        -0.678070         0.832862
 H        -3.390034         0.328440        -0.395953
 H        -2.231784        -1.907958         1.501480
 H         0.023761        -1.565199         0.955458
 H        -0.809928        -1.910826        -0.619516
 H        -0.500398         1.049604         2.179186
 H        -1.711850         2.225624         1.497028
