19
Iteration:  1202charge 0 multiplicity 1
 C        -3.055360         0.253364         2.991828
 C        -2.414933         0.057797         1.550960
 C        -3.193437        -0.714893         0.431701
 C        -1.963785        -1.307345         0.979312
 C        -0.574489        -1.287216         0.343040
 C        -0.247960         0.097512        -0.366635
 O         0.518501         0.083001        -1.279488
 O        -0.638118         1.341520         0.081850
 C        -1.815748         1.414052         1.017182
 H        -3.764496         1.171195         2.761150
 H        -3.806120        -0.541969         3.268140
 H        -2.345782         0.606606         3.791570
 H        -4.129171        -1.273169         0.649457
 H        -3.191092        -0.227607        -0.571584
 H        -2.054890        -2.163888         1.682528
 H         0.125471        -1.468463         1.198155
 H        -0.368191        -1.993141        -0.486892
 H        -1.459258         2.121605         1.838207
 H        -2.654713         1.853316         0.551505
