19
Iteration:  1225
 C        -3.130627         0.169700         2.960114
 C        -2.531760         0.069911         1.645434
 C        -3.138910        -0.512732         0.377631
 C        -1.956793        -1.196342         1.075123
 C        -0.534054        -1.154757         0.389768
 C        -0.158290         0.050002        -0.415724
 O         0.616728         0.064702        -1.370992
 O        -0.849187         1.176003        -0.014769
 C        -1.734069         1.315792         1.110584
 H        -4.121186         0.757495         3.075514
 H        -3.337576        -0.840702         3.388766
 H        -2.337544         0.702893         3.553645
 H        -4.123146        -0.958757         0.457093
 H        -3.020470         0.151154        -0.548464
 H        -2.096730        -2.162381         1.573428
 H         0.205056        -1.046900         1.248655
 H        -0.356830        -2.144828        -0.121647
 H        -1.150743         1.820734         1.918974
 H        -2.485581         2.003067         0.792316
