19
Iteration:  4595charge 0 multiplicity 1
 C        -3.190644         0.255942         2.996404
 C        -2.489178         0.068889         1.574818
 C        -3.270591        -0.513252         0.347284
 C        -2.039518        -1.159688         0.934584
 C        -0.638053        -1.267732         0.141832
 C        -0.240559         0.044825        -0.410055
 O         0.563805         0.169782        -1.364193
 O        -0.672924         1.208661         0.149043
 C        -1.474252         1.186983         1.369320
 H        -3.887080         0.993762         2.675707
 H        -3.640490        -0.607682         3.412606
 H        -2.476416         0.675924         3.630571
 H        -4.250350        -0.995845         0.508730
 H        -3.216826         0.185502        -0.550422
 H        -2.266792        -2.221197         1.077209
 H         0.180394        -1.575503         0.896108
 H        -0.715023        -2.096966        -0.606701
 H        -0.716848         1.050382         2.280659
 H        -1.906913         2.183763         1.554723
