19
Iteration:   600charge 0 multiplicity 1
 C        -3.397937         0.330970         2.698333
 C        -2.480690         0.045310         1.506946
 C        -3.038389        -0.800120         0.397155
 C        -1.766021        -1.199808         1.094967
 C        -0.417590        -1.127662         0.428833
 C        -0.202718         0.111822        -0.352525
 O         0.237607         0.134804        -1.508825
 O        -0.774697         1.243287         0.118327
 C        -1.469973         1.270510         1.361232
 H        -3.348973         1.480015         2.939451
 H        -4.413158        -0.059256         2.515762
 H        -3.298105        -0.281685         3.593638
 H        -3.913252        -1.419052         0.688150
 H        -3.085553        -0.494592        -0.628129
 H        -1.900019        -2.152126         1.749456
 H         0.383707        -1.031716         1.163823
 H        -0.291870        -2.027782        -0.185245
 H        -0.923806         1.191403         2.311478
 H        -2.097943         2.213126         1.360312
