19
Iteration:  3703charge 0 multiplicity 1
 C        -3.308114         0.123018         2.818416
 C        -2.385490         0.188117         1.490790
 C        -3.094250        -0.352494         0.182051
 C        -2.035684        -1.212211         1.070136
 C        -0.837583        -1.224664         0.271127
 C        -0.285035         0.026317        -0.427635
 O         0.335497         0.097053        -1.459298
 O        -0.547759         1.172757         0.277970
 C        -1.243882         1.208071         1.495453
 H        -3.395571        -0.839290         3.425333
 H        -2.868149         0.801510         3.507152
 H        -4.268698         0.469500         2.441029
 H        -4.184778        -0.467619         0.289521
 H        -2.781532        -0.022147        -0.789664
 H        -2.521033        -1.993699         1.743353
 H         0.121344        -1.432759         0.788302
 H        -1.136225        -1.969145        -0.529068
 H        -0.478974         0.939724         2.314709
 H        -1.565773         2.159951         1.793319
