19
Iteration:  2838charge 0 multiplicity 1
 C        -3.116580         0.258651         2.895018
 C        -2.540931         0.075044         1.549195
 C        -3.043683        -0.608725         0.408089
 C        -1.806015        -1.290440         1.034815
 C        -0.446157        -1.289668         0.289992
 C        -0.285677         0.081914        -0.374550
 O         0.548706         0.218396        -1.251834
 O        -0.958178         1.190900         0.049414
 C        -1.778346         1.315387         1.157259
 H        -4.049260         0.788933         2.907365
 H        -3.263880        -0.603576         3.523597
 H        -2.392243         0.797685         3.546143
 H        -3.916819        -1.161892         0.443830
 H        -2.807998         0.009261        -0.501770
 H        -1.996074        -2.239675         1.632539
 H         0.565030        -1.364877         0.814893
 H        -0.371318        -2.046243        -0.450432
 H        -1.192472         1.793642         1.938731
 H        -2.581284         2.008610         0.755139
