19
Iteration:  1165
 C        -3.077428         0.280600         2.844862
 C        -2.651106         0.168627         1.401052
 C        -3.224691        -0.978987         0.570517
 C        -1.892471        -1.162205         1.224012
 C        -0.744810        -1.297230         0.152808
 C        -0.176420         0.092123        -0.450198
 O         0.611135         0.202942        -1.364113
 O        -0.524603         1.224417         0.350559
 C        -1.810027         1.442243         0.974302
 H        -3.432567         1.312640         2.982371
 H        -3.876379        -0.391935         3.224043
 H        -2.210201         0.152126         3.554632
 H        -4.146162        -1.394005         0.909182
 H        -3.164509        -1.050042        -0.512136
 H        -1.670118        -1.450516         2.236799
 H         0.127218        -1.752603         0.542601
 H        -1.017431        -1.988543        -0.612257
 H        -1.538346         1.985455         1.905889
 H        -2.283257         2.236715         0.270196
