19
Iteration:  1560charge 0 multiplicity 1
 C        -3.059936         0.084147         2.929122
 C        -2.585910         0.159383         1.504968
 C        -3.166692        -0.786543         0.402121
 C        -1.911436        -1.108122         1.143472
 C        -0.594877        -1.085005         0.493348
 C        -0.174431         0.110936        -0.401538
 O         0.549998         0.003666        -1.332512
 O        -0.775915         1.346611        -0.047797
 C        -1.708401         1.344299         1.040987
 H        -3.832413         0.696888         3.399381
 H        -3.494927        -0.941063         2.919590
 H        -2.274521        -0.114042         3.657874
 H        -4.148140        -1.297275         0.526712
 H        -3.177813        -0.221501        -0.585441
 H        -2.132922        -1.936611         1.791407
 H         0.135497        -1.198429         1.206975
 H        -0.569497        -1.978353        -0.059474
 H        -0.972837         1.486426         1.848577
 H        -2.256298         2.314323         0.909002
