19
Iteration:  4650charge 0 multiplicity 1
 C        -3.139037         0.034095         2.974482
 C        -2.437659         0.225964         1.562057
 C        -3.146781        -0.392425         0.343185
 C        -2.036735        -1.176028         0.928600
 C        -0.668243        -1.295092         0.154472
 C        -0.275679         0.040500        -0.319672
 O         0.570832         0.068880        -1.263008
 O        -0.789484         1.241832         0.024990
 C        -1.508925         1.308587         1.350713
 H        -3.569490         0.891412         3.493520
 H        -3.928739        -0.675653         2.777004
 H        -2.471656        -0.437232         3.657138
 H        -4.156994        -0.815816         0.544738
 H        -2.969035         0.235627        -0.572563
 H        -2.341482        -2.113009         1.476581
 H         0.070838        -1.763688         0.882502
 H        -0.721463        -1.985288        -0.725030
 H        -0.643056         1.528979         2.092402
 H        -1.972562         2.257210         1.143411
