19
Iteration:  2684charge 0 multiplicity 1
 C        -3.002841         0.025388         2.855439
 C        -2.559549         0.156792         1.451857
 C        -3.202160        -0.791014         0.419512
 C        -1.943445        -1.187153         1.107101
 C        -0.659162        -1.029840         0.433548
 C        -0.205686         0.176097        -0.349679
 O         0.627545         0.055353        -1.220920
 O        -0.894517         1.330026        -0.138864
 C        -1.619532         1.333246         1.152447
 H        -3.885552         0.656152         3.121569
 H        -3.341103        -0.986157         3.153169
 H        -2.210942         0.356932         3.587708
 H        -4.211787        -1.279052         0.771743
 H        -3.338578        -0.629481        -0.633653
 H        -1.943000        -2.061321         1.763501
 H         0.165118        -1.241134         1.238250
 H        -0.467889        -1.741391        -0.354609
 H        -0.916694         1.261395         1.985675
 H        -2.032680         2.341185         1.158962
