19
Iteration:  4290charge 0 multiplicity 1
 C        -3.134631         0.015650         2.948007
 C        -2.421188         0.161958         1.576979
 C        -3.128447        -0.325108         0.296523
 C        -2.095869        -1.195761         0.912118
 C        -0.784350        -1.325943         0.168818
 C        -0.220169         0.041653        -0.365060
 O         0.623308         0.130934        -1.276584
 O        -0.763972         1.162907         0.080346
 C        -1.430982         1.370728         1.376510
 H        -4.066538        -0.617516         2.905671
 H        -2.573609        -0.531976         3.700851
 H        -3.514827         0.958060         3.399534
 H        -4.231010        -0.457839         0.382932
 H        -2.979017         0.245109        -0.712929
 H        -2.470594        -2.098223         1.399580
 H        -0.007287        -1.636003         0.865092
 H        -0.881204        -2.096447        -0.632288
 H        -0.905645         1.576804         2.302110
 H        -2.281132         2.077254         1.448572
