19
Iteration:  1951
 C        -3.238028         0.206434         2.863079
 C        -2.482672         0.188842         1.607176
 C        -3.201479        -0.788526         0.510586
 C        -1.816249        -1.136180         1.195523
 C        -0.635494        -1.231223         0.263704
 C        -0.224086         0.078427        -0.469575
 O         0.729492         0.284046        -1.246087
 O        -0.995554         1.163935        -0.139162
 C        -1.564521         1.282241         1.194447
 H        -4.034976         0.939213         2.904207
 H        -3.619706        -0.806077         3.059180
 H        -2.537606         0.362661         3.704080
 H        -4.061593        -1.326549         0.833675
 H        -3.085395        -0.488742        -0.580793
 H        -1.912339        -2.161761         1.690053
 H         0.205535        -1.578720         0.746271
 H        -0.780954        -1.969373        -0.481280
 H        -0.721081         1.376159         1.921749
 H        -2.005089         2.331638         1.270749
