19
Iteration:  4427charge 0 multiplicity 1
 C        -3.274482         0.091305         2.788964
 C        -2.447501         0.109643         1.496464
 C        -3.131635        -0.462226         0.316922
 C        -2.015814        -1.164276         1.032290
 C        -0.692622        -1.151085         0.353870
 C        -0.195762        -0.003779        -0.428294
 O         0.359542         0.143305        -1.526891
 O        -0.622146         1.207336         0.212078
 C        -1.413308         1.225970         1.485108
 H        -3.788225         1.062316         2.875401
 H        -4.094797        -0.683878         2.733914
 H        -2.671579        -0.187835         3.647328
 H        -4.136184        -0.702732         0.436605
 H        -2.950869        -0.099635        -0.686696
 H        -2.270988        -2.043476         1.600826
 H         0.099478        -1.060823         1.186015
 H        -0.472466        -2.021391        -0.256105
 H        -0.587909         1.130818         2.191109
 H        -1.632158         2.287565         1.646785
