19
Iteration:   155
 C        -3.414073         0.160053         2.923992
 C        -2.555483         0.082613         1.641918
 C        -3.198243        -0.449649         0.331663
 C        -2.066159        -1.144343         0.928690
 C        -0.572764        -1.201661         0.301518
 C        -0.143516         0.084679        -0.452483
 O         0.471179         0.025613        -1.463668
 O        -0.618813         1.278538         0.107169
 C        -1.341920         1.224818         1.417904
 H        -3.532627        -0.854423         3.045303
 H        -3.055547         0.549748         3.886883
 H        -4.417752         0.491119         2.639653
 H        -4.191991        -0.929345         0.273975
 H        -2.880001         0.175940        -0.444946
 H        -2.310246        -2.135014         1.574523
 H         0.154892        -1.332131         1.178590
 H        -0.377432        -1.981444        -0.411831
 H        -0.612881         0.867535         2.132867
 H        -1.664818         2.244705         1.591353
