19
Iteration:  3446
 C        -3.162027         0.238340         2.948818
 C        -2.415463         0.066890         1.544183
 C        -3.057826        -0.316321         0.292453
 C        -2.074232        -1.272197         0.857362
 C        -0.672189        -1.324940         0.277777
 C        -0.299351         0.038203        -0.384570
 O         0.470735         0.156780        -1.364850
 O        -0.755506         1.199074         0.140331
 C        -1.487484         1.189344         1.405239
 H        -2.616222         0.938825         3.595710
 H        -4.266388         0.576848         2.795490
 H        -3.178914        -0.731834         3.515035
 H        -3.948637        -0.842107         0.286022
 H        -2.747500         0.243163        -0.628134
 H        -2.419463        -2.136794         1.418866
 H         0.110466        -1.482571         1.113997
 H        -0.424846        -2.002862        -0.514602
 H        -0.714743         1.125902         2.260541
 H        -1.977972         2.222193         1.339018
