19
Iteration:  1778charge 0 multiplicity 1
 C        -3.355721         0.339287         2.793389
 C        -2.469597         0.091526         1.510549
 C        -3.122530        -0.782939         0.400405
 C        -1.833280        -1.217171         1.144584
 C        -0.396826        -1.097921         0.427913
 C        -0.196648         0.169660        -0.423052
 O         0.374303         0.109041        -1.511532
 O        -0.851868         1.279126         0.013306
 C        -1.492793         1.184553         1.404377
 H        -4.255456         0.933090         2.516858
 H        -3.897708        -0.619032         2.858237
 H        -3.044261         0.761867         3.759935
 H        -3.865775        -1.549657         0.688928
 H        -3.072147        -0.808026        -0.638572
 H        -2.019414        -2.086597         1.800306
 H         0.431404        -1.093704         1.319607
 H        -0.323748        -1.993351        -0.160741
 H        -0.697444         0.897900         2.072314
 H        -1.968249         2.148929         1.533473
