19
Iteration:  3810charge 0 multiplicity 1
 C        -3.199953        -0.056138         2.828697
 C        -2.458939         0.244714         1.439182
 C        -3.177285        -0.291290         0.343056
 C        -2.069979        -1.093477         0.994663
 C        -0.710438        -1.181100         0.290526
 C        -0.256264         0.022487        -0.364629
 O         0.383150        -0.072323        -1.366655
 O        -0.606064         1.295058         0.133883
 C        -1.376919         1.261279         1.446922
 H        -4.280473        -0.307849         2.567736
 H        -2.754388        -0.841243         3.434292
 H        -3.184141         0.885106         3.403877
 H        -4.234833        -0.676643         0.376957
 H        -2.809544        -0.222954        -0.642160
 H        -2.359170        -1.992474         1.700808
 H         0.110682        -1.598039         0.937914
 H        -0.610846        -1.902301        -0.593934
 H        -0.523935         0.946960         2.013985
 H        -1.551805         2.311483         1.670711
