19
Iteration:  3843charge 0 multiplicity 1
 C        -3.156911         0.172620         2.954085
 C        -2.439336         0.097862         1.619137
 C        -3.236250        -0.306094         0.359885
 C        -2.154607        -1.191803         0.789464
 C        -0.703526        -1.244716         0.281094
 C        -0.211263        -0.007250        -0.406300
 O         0.508158         0.118339        -1.396297
 O        -0.587537         1.155512         0.152221
 C        -1.453320         1.218915         1.362627
 H        -4.264846         0.048444         2.966055
 H        -2.859526        -0.377532         3.838771
 H        -3.107827         1.247144         3.221142
 H        -4.180750        -0.897742         0.278409
 H        -3.090596         0.176069        -0.583382
 H        -2.418796        -2.250127         1.186483
 H         0.024349        -1.283412         1.079134
 H        -0.559849        -2.159430        -0.370586
 H        -0.803475         1.101669         2.237387
 H        -1.959150         2.174844         1.415758
