19
Iteration:   923charge 0 multiplicity 1
 C        -2.161549         0.430378         2.867145
 C        -2.487864         0.009608         1.478314
 C        -3.409185        -0.988581         0.938715
 C        -1.961423        -1.220608         0.709241
 C        -1.122478        -1.087488        -0.625433
 C        -0.246025         0.149858        -0.262198
 O         1.000016         0.112584        -0.047787
 O        -0.871919         1.293250         0.065363
 C        -2.239406         1.219591         0.488129
 H        -3.054624         0.992602         3.286839
 H        -1.677102        -0.289796         3.599074
 H        -1.358146         1.285821         2.870029
 H        -3.954196        -1.545669         1.722265
 H        -4.199010        -0.692860         0.166872
 H        -1.457942        -1.876109         1.514834
 H        -0.659431        -2.013744        -0.890985
 H        -1.708090        -0.806939        -1.466487
 H        -2.216287         2.097950         1.043374
 H        -2.979248         1.235967        -0.324996
