19
Iteration:   789
 C        -2.905977         0.411277         2.933126
 C        -2.533024         0.060697         1.455833
 C        -3.302508        -1.084897         0.930677
 C        -1.847947        -1.201787         0.960665
 C        -1.097170        -0.945247        -0.359883
 C        -0.087369         0.144426        -0.238189
 O         0.911958         0.114211        -0.979453
 O        -0.512181         1.250193         0.479366
 C        -2.065470         1.216681         0.554738
 H        -3.652176         1.329846         2.872077
 H        -3.393745        -0.504355         3.426840
 H        -1.970584         0.476521         3.631824
 H        -3.879265        -1.605427         1.727340
 H        -3.760753        -1.031453        -0.011744
 H        -1.384823        -1.683779         1.726350
 H        -0.673360        -1.955754        -0.594885
 H        -1.756294        -0.556035        -1.111802
 H        -2.240921         2.278496         0.912368
 H        -2.343970         1.243498        -0.503162
