19
Iteration:  3788
 C        -3.248301         0.108533         2.848809
 C        -2.377934         0.199145         1.558764
 C        -3.067965        -0.313447         0.197214
 C        -2.097655        -1.093233         0.933103
 C        -0.652992        -1.308883         0.323362
 C        -0.263021        -0.029678        -0.352174
 O         0.339872         0.048367        -1.411519
 O        -0.708954         1.209859         0.177565
 C        -1.324606         1.237153         1.482811
 H        -4.198738        -0.488003         2.745315
 H        -2.617878        -0.483389         3.537610
 H        -3.446555         1.050156         3.402605
 H        -4.127688        -0.622379         0.262663
 H        -2.853459         0.256574        -0.704727
 H        -2.460256        -2.093291         1.386507
 H         0.240202        -1.661955         0.924956
 H        -0.724767        -2.127705        -0.472961
 H        -0.477899         1.255994         2.219502
 H        -1.800634         2.226306         1.426949
