19
Iteration:   455charge 0 multiplicity 1
 C        -3.392809         0.256825         2.773778
 C        -2.469716         0.130735         1.583477
 C        -3.051233        -0.606340         0.419584
 C        -1.878715        -1.234607         1.081653
 C        -0.487115        -1.139295         0.358341
 C        -0.234889         0.098884        -0.397124
 O         0.455470         0.124772        -1.370247
 O        -0.917691         1.190446        -0.014882
 C        -1.381252         1.208195         1.354416
 H        -4.318032        -0.324659         2.870181
 H        -2.822734        -0.093145         3.604275
 H        -3.717691         1.253405         2.987022
 H        -4.018558        -1.110025         0.578102
 H        -3.100785        -0.184884        -0.650575
 H        -2.108203        -2.169306         1.519507
 H         0.342240        -1.256947         0.960452
 H        -0.426270        -1.858432        -0.483755
 H        -0.611102         0.973684         2.034320
 H        -1.837593         2.193147         1.537009
