19
Iteration:   819charge 0 multiplicity 1
 C        -2.616601         0.510723         2.920549
 C        -2.493467        -0.009050         1.466624
 C        -3.416065        -1.077997         0.900200
 C        -1.922313        -1.257356         0.899072
 C        -1.107038        -1.003386        -0.433330
 C        -0.127951         0.169508        -0.364072
 O         0.998983         0.258631        -0.663380
 O        -0.695799         1.151603         0.377630
 C        -2.048480         1.187589         0.575480
 H        -3.072974         1.508132         2.937981
 H        -3.325606         0.114455         3.613018
 H        -1.652570         0.687231         3.320134
 H        -3.946145        -1.671722         1.624905
 H        -3.842682        -0.905007        -0.042129
 H        -1.513022        -1.956939         1.630459
 H        -0.662406        -2.022464        -0.571636
 H        -1.868864        -0.964057        -1.285441
 H        -2.376827         2.152525         1.133024
 H        -2.543099         1.288540        -0.440898
