19
Iteration:   851
 C        -2.289202         0.267337         2.944094
 C        -2.532844         0.122995         1.411759
 C        -3.455884        -0.953317         0.842836
 C        -1.997488        -1.235983         0.842027
 C        -0.995034        -1.109884        -0.307287
 C        -0.178977         0.144437        -0.202339
 O         1.014186         0.144838        -0.485696
 O        -0.830614         1.352648         0.175338
 C        -2.239308         1.277397         0.475071
 H        -2.854881         1.068897         3.370375
 H        -2.276742        -0.647234         3.508095
 H        -1.321794         0.668672         3.040785
 H        -4.096112        -1.577400         1.482524
 H        -3.968732        -0.743511        -0.063525
 H        -1.687533        -1.967674         1.618130
 H        -0.311946        -2.007779        -0.320919
 H        -1.554523        -1.179425        -1.309572
 H        -2.614827         2.219130         0.994345
 H        -2.732973         1.096030        -0.506379
