19
Iteration:   554
 C        -3.312940         0.106016         2.677443
 C        -2.385938         0.128543         1.503312
 C        -2.844731        -0.681709         0.179200
 C        -1.849888        -1.221888         1.133545
 C        -0.379124        -1.096401         0.625696
 C        -0.345351         0.075955        -0.359269
 O        -0.125462         0.030816        -1.518485
 O        -0.510384         1.248145         0.265965
 C        -1.555360         1.425687         1.250782
 H        -3.846653         1.088942         2.861339
 H        -4.058537        -0.648752         2.525620
 H        -2.926571        -0.238121         3.622573
 H        -3.891346        -1.053348         0.033028
 H        -2.421932        -0.303757        -0.809124
 H        -2.032967        -2.057785         1.872766
 H         0.185140        -0.943573         1.480487
 H        -0.087148        -2.055834         0.142268
 H        -1.133823         1.767303         2.181851
 H        -2.298987         2.183453         0.888075
