19
Iteration:  1061
 C        -2.605450         0.209920         2.891377
 C        -2.591726         0.157254         1.425855
 C        -3.440072        -0.869328         0.729457
 C        -1.967058        -1.162466         0.964801
 C        -0.802357        -1.203582         0.043177
 C        -0.138266         0.122298        -0.335238
 O         0.862873         0.177637        -0.989211
 O        -0.702415         1.236876         0.386394
 C        -2.124888         1.370570         0.577014
 H        -3.481511         0.675919         3.298827
 H        -2.429861        -0.777336         3.262394
 H        -1.783506         0.770369         3.231948
 H        -4.131529        -1.423272         1.448830
 H        -3.933631        -0.665866        -0.227326
 H        -1.593021        -1.733393         1.840919
 H        -0.071574        -1.971639         0.536068
 H        -1.011005        -1.745872        -0.957988
 H        -2.182220         2.442499         0.992599
 H        -2.660777         1.344520        -0.429119
