19
Iteration:   694
 C        -2.849556         0.090385         3.056999
 C        -2.508175         0.129135         1.564987
 C        -3.329227        -0.648928         0.416139
 C        -2.054654        -1.237077         0.986651
 C        -0.648636        -1.168672         0.352446
 C        -0.217208         0.078134        -0.409950
 O         0.845931         0.144101        -1.076449
 O        -0.865159         1.257667        -0.154773
 C        -1.862240         1.365153         0.986308
 H        -3.608326         0.726320         3.296764
 H        -2.973505        -0.931929         3.314376
 H        -2.026459         0.281410         3.718226
 H        -4.308274        -1.222058         0.709639
 H        -3.441011        -0.125696        -0.552735
 H        -2.087679        -2.168434         1.611531
 H         0.098368        -1.218209         1.176988
 H        -0.516981        -1.991329        -0.414386
 H        -1.269722         1.955134         1.673597
 H        -2.677454         2.010069         0.607565
