19
Iteration:  2345
 C        -3.005293         0.260411         2.974800
 C        -2.548881         0.042715         1.547324
 C        -3.314686        -0.707630         0.474943
 C        -1.927755        -1.261349         1.013286
 C        -0.577274        -1.188737         0.355195
 C        -0.135928         0.099627        -0.427281
 O         0.789737         0.335158        -1.203311
 O        -0.988422         1.129804        -0.192131
 C        -1.770108         1.253668         1.156705
 H        -3.330129         1.313595         3.188559
 H        -3.863385        -0.319163         3.331693
 H        -2.244254         0.103188         3.780424
 H        -4.174271        -1.443491         0.765076
 H        -3.196153        -0.368658        -0.555715
 H        -1.975430        -2.102517         1.718332
 H         0.119603        -1.333233         1.132874
 H        -0.344030        -1.927715        -0.359354
 H        -0.956660         1.442157         1.896728
 H        -2.259087         2.251944         1.164818
