19
Iteration:  1826charge 0 multiplicity 1
 C        -3.284926         0.211973         2.812636
 C        -2.307445         0.081057         1.639271
 C        -2.935916        -0.681191         0.387408
 C        -1.825444        -1.242299         1.102060
 C        -0.537511        -1.175082         0.379438
 C        -0.270663         0.072415        -0.380851
 O         0.476584         0.114759        -1.317799
 O        -1.019101         1.251952        -0.072098
 C        -1.609801         1.338081         1.255911
 H        -4.095020         0.937274         2.610486
 H        -3.771318        -0.705561         3.106401
 H        -2.770200         0.655204         3.655790
 H        -3.962053        -0.820972         0.668373
 H        -2.836481        -0.276318        -0.667262
 H        -1.887901        -2.233107         1.572163
 H         0.258434        -1.357398         1.091970
 H        -0.549445        -2.002320        -0.398752
 H        -0.864342         1.586948         2.048003
 H        -2.343685         2.125846         1.085893
