19
Iteration:  4906charge 0 multiplicity 1
 C        -3.256615         0.101043         2.801120
 C        -2.404204         0.198466         1.550276
 C        -3.142387        -0.399472         0.218298
 C        -2.025778        -1.152837         0.998210
 C        -0.585835        -1.194370         0.340508
 C        -0.224819         0.075365        -0.392201
 O         0.329781         0.064190        -1.453219
 O        -0.702286         1.198096         0.184908
 C        -1.364149         1.183108         1.471020
 H        -3.971273         0.977356         2.858527
 H        -3.858131        -0.807060         2.985075
 H        -2.600592         0.221140         3.709896
 H        -4.154163        -0.795563         0.353872
 H        -2.958242        -0.091455        -0.763901
 H        -2.279048        -1.926150         1.675301
 H         0.083747        -1.624736         1.142432
 H        -0.654052        -1.979473        -0.451512
 H        -0.665241         0.838447         2.301772
 H        -1.698202         2.295802         1.517837
