19
Iteration:  2857charge 0 multiplicity 1
 C        -3.118985         0.064204         2.952451
 C        -2.365254         0.070887         1.548875
 C        -3.013090        -0.663274         0.292420
 C        -1.864453        -1.223498         1.035135
 C        -0.524781        -1.196388         0.451588
 C        -0.289439         0.076158        -0.360963
 O         0.481544         0.106938        -1.310042
 O        -0.885064         1.301129        -0.025307
 C        -1.800643         1.444653         1.148625
 H        -4.060649         0.587562         2.915385
 H        -3.208190        -0.981327         3.358787
 H        -2.541732         0.623963         3.766398
 H        -4.020195        -1.017085         0.394038
 H        -2.732597        -0.190756        -0.715520
 H        -2.170447        -2.032212         1.707417
 H         0.139422        -1.280495         1.267108
 H        -0.272697        -2.026758        -0.203689
 H        -1.140883         1.822026         2.001878
 H        -2.578343         2.132069         0.937606
