19
Iteration:  2796
 C        -3.267034         0.218600         2.875131
 C        -2.497200         0.033870         1.508238
 C        -3.256534        -0.877912         0.646062
 C        -1.877143        -1.292022         1.164157
 C        -0.601856        -1.157486         0.203407
 C        -0.238796         0.188102        -0.509862
 O         0.760531         0.254586        -1.176412
 O        -0.911106         1.330362        -0.118518
 C        -1.574861         1.276852         1.132176
 H        -3.961993         1.114616         2.847068
 H        -3.911961        -0.556972         3.283998
 H        -2.355901         0.276064         3.447045
 H        -4.092978        -1.252268         1.131305
 H        -3.390225        -0.587668        -0.413815
 H        -1.735086        -2.154696         1.875305
 H         0.336689        -1.531190         0.824040
 H        -0.681884        -1.805561        -0.686291
 H        -0.795405         1.150512         1.850612
 H        -1.999556         2.353988         1.210307
