19
Iteration:  1960charge 0 multiplicity 1
 C        -3.285442         0.218045         2.869527
 C        -2.439899         0.089120         1.552759
 C        -3.182932        -0.794863         0.568878
 C        -1.881617        -1.199922         1.173863
 C        -0.633931        -1.136369         0.252170
 C        -0.140914         0.132871        -0.432018
 O         0.706438         0.268815        -1.270263
 O        -1.005690         1.137164        -0.147881
 C        -1.531884         1.298133         1.194498
 H        -4.143097         0.821213         2.779864
 H        -3.690091        -0.761014         3.145496
 H        -2.706035         0.558263         3.740021
 H        -4.154037        -1.099717         0.913665
 H        -3.326338        -0.404232        -0.450988
 H        -1.658778        -1.872245         1.969684
 H         0.120369        -1.656402         0.818123
 H        -0.785820        -1.799003        -0.617243
 H        -0.684198         1.102504         1.852791
 H        -1.783732         2.372344         1.263027
