19
Iteration:  2892charge 0 multiplicity 1
 C        -3.254387        -0.020631         2.896132
 C        -2.532938         0.147966         1.481593
 C        -3.160170        -0.712613         0.387214
 C        -1.826848        -1.108349         0.998620
 C        -0.332679        -1.057225         0.610336
 C        -0.234040         0.105774        -0.434169
 O         0.421687         0.039483        -1.447221
 O        -0.820750         1.327577        -0.043451
 C        -1.691242         1.304518         1.224358
 H        -4.021930         0.722716         3.067668
 H        -3.837694        -0.943742         2.961384
 H        -2.470425         0.032793         3.719113
 H        -4.080302        -1.185565         0.719908
 H        -3.155748        -0.343281        -0.644253
 H        -1.841516        -1.903968         1.825006
 H         0.219124        -0.631812         1.437548
 H         0.036298        -1.959891         0.252802
 H        -0.877379         1.108273         1.981980
 H        -1.964214         2.359291         1.430331
