19
Iteration:  2962charge 0 multiplicity 1
 C        -3.379875         0.216001         2.699819
 C        -2.392988         0.089738         1.534755
 C        -2.820733        -0.793358         0.346262
 C        -1.747640        -1.230430         1.172049
 C        -0.412388        -1.102563         0.423014
 C        -0.290484         0.119466        -0.363122
 O         0.222441         0.141455        -1.433440
 O        -0.944347         1.223684         0.075012
 C        -1.536426         1.316180         1.329947
 H        -3.840612         1.252912         2.824187
 H        -4.315088        -0.304132         2.452115
 H        -3.048723        -0.057195         3.671578
 H        -3.797394        -1.057546         0.636648
 H        -2.579303        -0.653137        -0.754609
 H        -1.770943        -2.017046         1.865830
 H         0.430930        -1.251043         1.174550
 H        -0.381505        -1.876990        -0.433021
 H        -0.812596         1.475974         2.145879
 H        -2.137303         2.302637         1.323723
