19
Iteration:  4764charge 0 multiplicity 1
 C        -3.339012         0.155145         2.885356
 C        -2.413150         0.071171         1.683661
 C        -3.078825        -0.326625         0.335918
 C        -1.936852        -1.151494         0.961651
 C        -0.680758        -1.319495         0.238656
 C        -0.197032        -0.000131        -0.412372
 O         0.451487         0.115117        -1.508762
 O        -0.711678         1.162454         0.207619
 C        -1.434122         1.319079         1.406302
 H        -3.990228         0.951612         2.645812
 H        -3.815600        -0.818551         2.812346
 H        -2.809082         0.184537         3.832065
 H        -4.017069        -0.708023         0.581610
 H        -2.897903         0.142433        -0.620965
 H        -2.401752        -2.034962         1.321445
 H         0.201092        -1.774040         0.749874
 H        -0.840896        -1.934379        -0.648059
 H        -0.902202         1.390994         2.430036
 H        -2.159166         2.224566         1.412390
