19
Iteration:    75
 C        -3.385890         0.188653         2.641518
 C        -2.494700         0.130121         1.426561
 C        -3.085445        -0.574126         0.215803
 C        -1.892994        -1.152458         0.930214
 C        -0.467828        -1.066037         0.487455
 C        -0.266055         0.065895        -0.372048
 O        -0.050415         0.030406        -1.587642
 O        -0.416552         1.238499         0.392926
 C        -1.314409         1.123330         1.548363
 H        -4.441895        -0.218069         2.278356
 H        -3.129957        -0.325291         3.511676
 H        -3.530600         1.216698         2.863509
 H        -4.089054        -1.015800         0.107433
 H        -2.758606         0.007058        -0.682605
 H        -1.994066        -1.777749         1.679142
 H        -0.070437        -0.754353         1.498722
 H        -0.059412        -2.044495         0.029090
 H        -0.755799         0.876405         2.495959
 H        -1.575417         2.181887         1.683000
