19
Iteration:  4925
 C        -3.124052         0.206169         2.783715
 C        -2.547226         0.154149         1.448899
 C        -3.203023        -0.518349         0.270352
 C        -2.045820        -1.281338         0.997589
 C        -0.710379        -1.235143         0.321557
 C        -0.258100         0.043071        -0.375940
 O         0.372255         0.129424        -1.383528
 O        -0.597651         1.346313         0.210557
 C        -1.347697         1.153067         1.397927
 H        -3.954668         1.024234         3.036990
 H        -3.701062        -0.713473         3.049213
 H        -2.439648         0.275451         3.688978
 H        -4.182956        -0.930379         0.469703
 H        -2.956643        -0.042080        -0.664919
 H        -2.383389        -2.177148         1.470390
 H         0.009698        -1.294623         1.152584
 H        -0.551202        -2.076489        -0.316429
 H        -0.586071         0.902690         2.073374
 H        -1.573752         2.203755         1.561604
