19
Iteration:  1815
 C        -3.294457         0.321114         2.756044
 C        -2.371652         0.052584         1.658256
 C        -2.919953        -0.569830         0.385820
 C        -1.784302        -1.253802         1.230736
 C        -0.491677        -1.267023         0.384680
 C        -0.310272         0.025958        -0.463229
 O         0.469035         0.223405        -1.375653
 O        -1.029574         1.194182        -0.051663
 C        -1.613520         1.241542         1.341403
 H        -4.051091         0.866857         2.177121
 H        -3.733785        -0.636633         2.983033
 H        -2.984711         0.767166         3.681992
 H        -3.952496        -0.924935         0.444722
 H        -2.613095        -0.370697        -0.712580
 H        -2.034370        -2.217122         1.706240
 H         0.449839        -1.332500         0.903986
 H        -0.353374        -2.086941        -0.401742
 H        -0.791258         1.583453         2.024940
 H        -2.303268         2.101755         1.393493
