19
Iteration:  1786charge 0 multiplicity 1
 C        -3.419048         0.359054         2.792625
 C        -2.528373         0.099726         1.586470
 C        -3.026540        -0.790919         0.405663
 C        -1.789059        -1.217131         1.116131
 C        -0.432323        -1.133766         0.417204
 C        -0.195249         0.074310        -0.389212
 O         0.355085         0.210334        -1.466261
 O        -0.886715         1.194486        -0.023951
 C        -1.450284         1.215447         1.348857
 H        -4.183915         1.007466         2.377982
 H        -3.870939        -0.640388         3.044150
 H        -3.005761         0.807628         3.741016
 H        -3.937689        -1.280100         0.839632
 H        -2.903931        -0.587195        -0.665544
 H        -1.895473        -2.131909         1.657239
 H         0.374603        -1.288730         1.130091
 H        -0.286130        -1.914103        -0.326449
 H        -0.576554         1.095937         2.010799
 H        -1.884793         2.215044         1.581001
