19
Iteration:  1598
 C        -3.294680         0.269860         2.809024
 C        -2.376585         0.114083         1.662677
 C        -3.006508        -0.660642         0.475380
 C        -1.850076        -1.234776         1.119467
 C        -0.527977        -1.263986         0.371979
 C        -0.246360         0.059088        -0.455917
 O         0.504644         0.165472        -1.386449
 O        -0.923789         1.197689         0.018737
 C        -1.621528         1.344930         1.163181
 H        -4.246051         0.747795         2.523814
 H        -3.526300        -0.775010         3.060746
 H        -2.859380         0.832545         3.656745
 H        -3.991633        -1.132935         0.639451
 H        -2.855486        -0.081433        -0.384707
 H        -1.915147        -2.197364         1.693726
 H         0.282253        -1.389976         1.248502
 H        -0.343179        -2.104929        -0.388493
 H        -1.074950         1.772979         2.013060
 H        -2.439126         2.013032         0.954841
