19
Iteration:  1857
 C        -3.107582         0.080152         2.923609
 C        -2.567743         0.136608         1.481272
 C        -3.220388        -0.765042         0.412132
 C        -1.899534        -1.115731         1.080813
 C        -0.511440        -1.107899         0.478009
 C        -0.197136         0.094804        -0.412486
 O         0.587314         0.103845        -1.349002
 O        -0.819053         1.298910        -0.079995
 C        -1.721028         1.309520         1.131177
 H        -3.808665         0.891179         3.252922
 H        -3.508907        -0.899793         3.154132
 H        -2.250146         0.103170         3.602343
 H        -4.092452        -1.027960         0.900578
 H        -3.138879        -0.375684        -0.630169
 H        -2.011382        -2.005578         1.721510
 H         0.226744        -1.179784         1.401399
 H        -0.418999        -2.137996         0.031054
 H        -1.090087         1.406119         2.026037
 H        -2.262620         2.236612         1.141569
