19
Iteration:  2894
 C        -3.262931        -0.022207         2.899606
 C        -2.548225         0.144006         1.503053
 C        -3.146373        -0.721329         0.371187
 C        -1.826033        -1.115668         0.989883
 C        -0.321792        -1.060395         0.614801
 C        -0.241981         0.100271        -0.444403
 O         0.425437         0.043948        -1.462639
 O        -0.836441         1.330295        -0.030571
 C        -1.661648         1.299316         1.233168
 H        -3.955807         0.863494         3.027216
 H        -3.895975        -0.885920         2.910753
 H        -2.518870         0.070463         3.678936
 H        -4.098977        -1.229150         0.698798
 H        -3.221878        -0.380381        -0.599038
 H        -1.832862        -1.874017         1.815539
 H         0.227271        -0.559186         1.470083
 H         0.034315        -2.027195         0.292695
 H        -0.883574         1.184036         1.991953
 H        -1.935803         2.401014         1.466616
