19
Iteration:   932
 C        -2.160464         0.485513         2.922109
 C        -2.437554         0.063569         1.370028
 C        -3.416724        -1.100245         0.938953
 C        -1.905851        -1.258036         0.760401
 C        -1.196293        -1.012401        -0.611899
 C        -0.202406         0.153747        -0.236154
 O         0.952643         0.044440        -0.073971
 O        -0.827648         1.337421         0.092808
 C        -2.277991         1.231791         0.477262
 H        -3.063212         1.022495         3.324195
 H        -1.985065        -0.376645         3.623697
 H        -1.239193         1.149077         2.859508
 H        -3.940462        -1.710712         1.654269
 H        -3.987571        -0.786631        -0.008790
 H        -1.306801        -1.919932         1.396194
 H        -0.689196        -1.980938        -0.872039
 H        -1.977493        -0.774449        -1.344003
 H        -2.541749         2.158265         1.036451
 H        -2.849298         1.377330        -0.487861
