19
Iteration:   481
 C        -3.265300         0.151637         2.670728
 C        -2.402208         0.141246         1.504661
 C        -2.973700        -0.659318         0.253358
 C        -1.949994        -1.219281         1.167571
 C        -0.512703        -1.158060         0.613844
 C        -0.349982         0.082416        -0.437807
 O         0.261725         0.116930        -1.480616
 O        -0.829079         1.319128         0.051391
 C        -1.341590         1.216369         1.400040
 H        -4.385383         0.121493         2.370503
 H        -3.153184        -0.545550         3.520760
 H        -3.366771         1.140236         3.234192
 H        -4.000405        -0.946129         0.098705
 H        -2.630900        -0.346155        -0.688306
 H        -2.282851        -2.023007         1.939195
 H         0.319097        -0.906409         1.428170
 H        -0.219130        -2.011960        -0.009046
 H        -0.573560         0.789138         2.106389
 H        -1.851436         2.132337         1.676553
