19
Iteration:   312
 C        -2.895005         0.287565         3.030366
 C        -2.493538         0.061916         1.585479
 C        -3.313116        -0.651857         0.518268
 C        -1.965875        -1.195652         0.880398
 C        -0.912118        -1.247408        -0.185262
 C        -0.191543         0.025260        -0.330689
 O         0.915217         0.135586        -0.827403
 O        -0.840701         1.183114        -0.049695
 C        -1.723774         1.350731         1.121270
 H        -2.757151         1.324165         3.275698
 H        -3.880182         0.067707         3.339609
 H        -2.275859        -0.209856         3.732799
 H        -4.281317        -1.236009         0.586120
 H        -3.339011        -0.034283        -0.391817
 H        -2.099620        -2.042239         1.546979
 H        -0.174894        -1.974309        -0.011314
 H        -1.406852        -1.426554        -1.172521
 H        -1.251255         1.879495         1.905649
 H        -2.531811         2.018531         0.686194
