19
Iteration:  2392charge 0 multiplicity 1
 C        -2.967406         0.000998         2.888145
 C        -2.423337         0.111912         1.529441
 C        -3.186644        -0.701832         0.414080
 C        -1.877323        -1.180113         1.150649
 C        -0.672409        -1.225809         0.342409
 C        -0.224536         0.119205        -0.373426
 O         0.666559         0.082880        -1.194852
 O        -0.916052         1.339057        -0.118845
 C        -1.820823         1.405218         1.077450
 H        -3.926457         0.606171         3.074798
 H        -3.138559        -0.951418         3.391678
 H        -2.381073         0.527155         3.629422
 H        -4.184827        -0.831511         0.688357
 H        -2.924058        -0.275664        -0.570292
 H        -1.919550        -1.983357         1.864606
 H         0.177925        -1.179051         1.070424
 H        -0.430616        -2.062921        -0.292500
 H        -1.346774         1.942311         1.892463
 H        -2.623675         2.139451         0.806048
