19
Iteration:  4878charge 0 multiplicity 1
 C        -3.438811         0.093000         2.816328
 C        -2.357948         0.111741         1.688923
 C        -2.939284        -0.195939         0.331353
 C        -1.964338        -1.239582         0.917649
 C        -0.504106        -1.239129         0.359877
 C        -0.339251        -0.005779        -0.429619
 O         0.306805         0.059462        -1.481938
 O        -0.695533         1.201057         0.081566
 C        -1.436482         1.208417         1.472112
 H        -4.000001         1.004449         3.008985
 H        -4.138984        -0.738296         2.958932
 H        -2.853252         0.043982         3.777700
 H        -4.026142        -0.470017         0.403167
 H        -2.605831         0.448802        -0.546647
 H        -2.422312        -2.205493         1.348695
 H         0.136831        -1.401860         1.183811
 H        -0.425061        -2.105559        -0.309879
 H        -0.629999         1.311543         2.219892
 H        -1.813751         2.185116         1.362382
