19
Iteration:  4497charge 0 multiplicity 1
 C        -3.309335         0.044239         2.860575
 C        -2.461291         0.102467         1.584675
 C        -3.021378        -0.310199         0.301884
 C        -1.992478        -1.146162         0.934844
 C        -0.532045        -1.244036         0.430286
 C        -0.308055        -0.017732        -0.421875
 O         0.290244         0.116850        -1.516934
 O        -0.657343         1.199734         0.188297
 C        -1.427618         1.264060         1.403382
 H        -3.347497         1.111106         2.997060
 H        -4.273224        -0.342958         2.619970
 H        -2.736590        -0.535657         3.559336
 H        -4.054040        -0.761776         0.281955
 H        -2.853298         0.206782        -0.667339
 H        -2.301003        -2.154281         1.262994
 H         0.115477        -1.094157         1.344631
 H        -0.329295        -2.253641         0.013864
 H        -0.764026         1.184282         2.220414
 H        -1.720609         2.300747         1.384425
