19
Iteration:  1703
 C        -3.240881         0.088238         2.899461
 C        -2.523538         0.171017         1.550156
 C        -2.925677        -0.508174         0.251522
 C        -1.770095        -1.093745         1.056906
 C        -0.284141        -1.136866         0.502640
 C        -0.309238         0.066626        -0.342627
 O         0.264129        -0.076282        -1.443187
 O        -0.845019         1.178631         0.131346
 C        -1.724531         1.378809         1.157273
 H        -3.844453         0.929416         3.327097
 H        -3.918955        -0.777237         2.885572
 H        -2.515061        -0.184979         3.660214
 H        -3.721139        -1.269815         0.069841
 H        -2.824271        -0.001723        -0.657292
 H        -2.087691        -1.900525         1.779112
 H         0.449709        -1.138479         1.308692
 H        -0.023471        -1.930378        -0.200928
 H        -1.156234         1.929084         1.988341
 H        -2.495135         2.149431         0.809790
