19
Iteration:  3864
 C        -3.060347         0.339824         2.944805
 C        -2.463551         0.069137         1.490853
 C        -3.204127        -0.246916         0.269769
 C        -2.080104        -1.222667         0.868068
 C        -0.629545        -1.360928         0.198435
 C        -0.172615         0.023203        -0.352521
 O         0.508940         0.140524        -1.366102
 O        -0.758440         1.097328         0.219859
 C        -1.512710         1.139726         1.436673
 H        -4.048185        -0.071405         3.322764
 H        -2.469842        -0.080177         3.784523
 H        -3.345630         1.397455         2.974230
 H        -4.284675        -0.601004         0.397215
 H        -3.195690         0.539998        -0.440960
 H        -2.448389        -2.319069         1.147111
 H         0.073992        -1.771390         0.850009
 H        -0.554633        -2.005886        -0.743470
 H        -0.774215         1.195923         2.247125
 H        -2.239880         2.044925         1.415886
