19
Iteration:    18charge 0 multiplicity 1
 C        -3.276048         0.180352         2.766042
 C        -2.394439         0.135714         1.541381
 C        -2.926812        -0.354265         0.181915
 C        -1.925199        -1.264254         0.921577
 C        -0.558556        -1.284654         0.335514
 C        -0.319522         0.032617        -0.372769
 O         0.319192        -0.069666        -1.412055
 O        -0.790989         1.337250         0.234600
 C        -1.484033         1.311934         1.560712
 H        -4.225898        -0.454155         2.664155
 H        -2.681140        -0.250311         3.598880
 H        -3.649274         1.169261         3.083081
 H        -3.986496        -0.753257         0.284302
 H        -2.690791         0.130742        -0.763488
 H        -2.428741        -2.167268         1.278185
 H         0.278275        -1.617939         1.000523
 H        -0.373833        -2.077714        -0.460033
 H        -0.738335         1.454113         2.385831
 H        -2.102973         2.232545         1.445522
