19
Iteration:   425
 C        -3.242058         0.261318         2.929044
 C        -2.404788         0.027249         1.624221
 C        -3.129434        -0.541595         0.418285
 C        -1.978292        -1.262587         1.032328
 C        -0.618824        -1.281620         0.226284
 C        -0.164930         0.044123        -0.430973
 O         0.663076         0.221239        -1.304304
 O        -0.858801         1.191164         0.000763
 C        -1.672892         1.278633         1.243112
 H        -3.537704        -0.610762         3.656078
 H        -2.466167         0.734579         3.540035
 H        -4.013966         0.979383         2.638463
 H        -4.108028        -0.918673         0.578527
 H        -2.905343        -0.015991        -0.542395
 H        -2.163554        -2.211656         1.582844
 H         0.179226        -1.443931         1.052282
 H        -0.533751        -2.160463        -0.469588
 H        -1.077033         1.732181         2.089825
 H        -2.463192         2.046183         1.106203
