19
Iteration:  3536charge 0 multiplicity 1
 C        -3.050464         0.180008         2.930461
 C        -2.476131         0.093441         1.503641
 C        -3.278602        -0.374631         0.315645
 C        -2.072460        -1.177790         0.857812
 C        -0.727049        -1.301464         0.152504
 C        -0.209364         0.062929        -0.293560
 O         0.525020         0.067518        -1.268711
 O        -0.713000         1.252258         0.155718
 C        -1.433974         1.214344         1.333645
 H        -4.011833         0.681488         2.763657
 H        -3.321277        -0.754552         3.515165
 H        -2.375445         0.901449         3.516697
 H        -4.383118        -0.746202         0.529009
 H        -3.154214         0.190664        -0.590912
 H        -2.484151        -2.011981         1.444006
 H         0.038269        -1.706141         0.914413
 H        -0.688904        -1.999190        -0.709623
 H        -0.673217         0.746568         2.107171
 H        -1.719735         2.257644         1.603602
