19
Iteration:   408charge 0 multiplicity 1
 C        -3.005988         0.236252         2.928041
 C        -2.482635         0.110180         1.533680
 C        -3.213841        -0.588792         0.406503
 C        -1.960488        -1.296764         0.968833
 C        -0.673234        -1.278365         0.262225
 C        -0.256812         0.081301        -0.339620
 O         0.669365         0.193531        -1.164352
 O        -0.800215         1.191845         0.044700
 C        -1.698074         1.345042         1.084300
 H        -2.846642        -0.672544         3.430770
 H        -2.545325         0.922032         3.711035
 H        -4.133709         0.337521         2.999803
 H        -4.239559        -1.010187         0.515625
 H        -3.204012        -0.193585        -0.584247
 H        -2.153296        -2.198344         1.596626
 H         0.184414        -1.555425         0.874743
 H        -0.717930        -1.877073        -0.625699
 H        -1.103271         1.670238         1.962723
 H        -2.408414         2.144234         0.795379
