19
Iteration:  2113
 C        -3.311868         0.310845         2.707463
 C        -2.470503         0.058791         1.533855
 C        -2.957281        -0.636510         0.274925
 C        -1.703233        -1.213692         1.077830
 C        -0.278689        -1.113216         0.542284
 C        -0.248969         0.091632        -0.355931
 O         0.203730         0.071993        -1.444243
 O        -1.030851         1.216444         0.018605
 C        -1.567949         1.225016         1.403296
 H        -3.494219         1.392650         2.694779
 H        -4.255584        -0.324881         2.775281
 H        -2.673220         0.107554         3.620462
 H        -3.763720        -1.434371         0.286069
 H        -2.660201        -0.184894        -0.658517
 H        -1.798490        -2.196795         1.609833
 H         0.542031        -0.848594         1.336252
 H        -0.077064        -2.032540        -0.069461
 H        -0.781133         1.114831         2.218198
 H        -2.121800         2.154088         1.672291
