19
Iteration:  1934
 C        -3.125998         0.190931         2.970700
 C        -2.462544         0.089397         1.505715
 C        -3.045707        -0.654019         0.425038
 C        -1.870972        -1.221546         1.131455
 C        -0.578267        -1.262212         0.251044
 C        -0.307153         0.065475        -0.435850
 O         0.663435         0.200926        -1.169017
 O        -0.986344         1.224495        -0.110469
 C        -1.706184         1.350008         1.144538
 H        -3.805242         1.098147         3.072545
 H        -3.841351        -0.607491         3.231568
 H        -2.365480         0.200357         3.764023
 H        -4.004635        -1.173802         0.631373
 H        -3.058012        -0.295652        -0.590441
 H        -1.861566        -1.893525         1.986100
 H         0.381103        -1.524080         0.899819
 H        -0.590709        -2.133635        -0.497109
 H        -1.004463         1.606047         1.957578
 H        -2.283451         2.260428         0.986767
