19
Iteration:  2054
 C        -3.157158         0.016668         2.937164
 C        -2.447106         0.140280         1.512739
 C        -3.124965        -0.654033         0.350850
 C        -1.864205        -1.197204         1.021222
 C        -0.434993        -1.017517         0.530924
 C        -0.212997         0.079192        -0.389506
 O         0.401480        -0.050888        -1.396233
 O        -0.801904         1.319563         0.034411
 C        -1.737612         1.409129         1.144506
 H        -3.948034         0.732246         3.366770
 H        -3.794721        -0.852415         2.759517
 H        -2.461446        -0.282118         3.735989
 H        -4.095882        -1.073991         0.585643
 H        -3.169088        -0.291254        -0.679172
 H        -1.944144        -2.121262         1.571175
 H         0.370121        -0.771388         1.192801
 H        -0.082952        -1.952151         0.068324
 H        -1.047348         1.830461         1.919115
 H        -2.433465         2.203304         0.855568
