19
Iteration:  1730
 C        -3.149729         0.109151         2.829369
 C        -2.436147         0.101156         1.515848
 C        -2.974436        -0.676467         0.199493
 C        -1.871981        -1.167023         1.078133
 C        -0.381176        -1.190049         0.647727
 C        -0.227108         0.060446        -0.353249
 O         0.212335         0.020508        -1.474809
 O        -0.792743         1.313808         0.111201
 C        -1.699656         1.418959         1.202153
 H        -3.778589         0.968057         3.055697
 H        -3.842745        -0.744634         2.929478
 H        -2.367354         0.123779         3.635756
 H        -3.988772        -1.056566         0.236955
 H        -2.797840        -0.151020        -0.808651
 H        -2.174192        -1.960211         1.758902
 H         0.241489        -1.176061         1.558081
 H        -0.181303        -2.093704         0.003210
 H        -1.144152         1.878217         2.017753
 H        -2.562136         2.025648         0.878960
