19
Iteration:  3343
 C        -3.162870         0.161499         2.823807
 C        -2.395228         0.049411         1.533941
 C        -3.034301        -0.460043         0.229648
 C        -1.946440        -1.183856         0.908003
 C        -0.541758        -1.297951         0.329834
 C        -0.309271         0.079387        -0.311093
 O         0.222191         0.060696        -1.362862
 O        -0.683285         1.264718         0.265890
 C        -1.543008         1.330644         1.320575
 H        -3.599503        -0.792889         3.249447
 H        -2.475847         0.556798         3.546929
 H        -4.001599         0.832238         2.618763
 H        -4.020121        -0.927974         0.163878
 H        -2.748617         0.005099        -0.749245
 H        -2.216369        -2.063148         1.507534
 H         0.304897        -1.552641         1.083880
 H        -0.450151        -2.065070        -0.532428
 H        -0.835605         1.393792         2.274995
 H        -2.151043         2.295496         1.263220
