19
Iteration:  3904
 C        -3.177982         0.089866         2.895569
 C        -2.446421         0.129737         1.541524
 C        -3.211238        -0.309098         0.343166
 C        -2.125940        -1.239362         1.016028
 C        -0.832079        -1.231135         0.178938
 C        -0.280278         0.049282        -0.468981
 O         0.618986         0.019945        -1.258619
 O        -0.698339         1.312039         0.077925
 C        -1.328133         1.220856         1.422388
 H        -3.475600        -0.942048         2.925155
 H        -2.539165         0.437827         3.765071
 H        -4.087862         0.701195         2.749628
 H        -4.267756        -0.611890         0.615676
 H        -3.084949        -0.059685        -0.695019
 H        -2.545542        -2.048220         1.602852
 H         0.178697        -1.507911         0.651486
 H        -0.902024        -1.960894        -0.614403
 H        -0.508173         0.876289         2.101933
 H        -1.430130         2.322713         1.534390
