19
Iteration:  2784charge 0 multiplicity 1
 C        -3.157652         0.148519         2.806357
 C        -2.460962         0.060262         1.512802
 C        -3.265466        -0.872190         0.603124
 C        -1.799370        -1.222910         1.149702
 C        -0.699658        -1.102044         0.187152
 C        -0.325523         0.160201        -0.483165
 O         0.753754         0.186698        -1.068742
 O        -0.926061         1.355424        -0.202371
 C        -1.583658         1.282284         1.191562
 H        -3.579012         1.153160         2.852840
 H        -3.897871        -0.642931         2.910876
 H        -2.636543         0.175429         3.762388
 H        -4.074260        -1.268699         1.134844
 H        -3.504107        -0.845611        -0.492861
 H        -1.617748        -1.986089         1.961900
 H         0.344105        -1.250827         0.694269
 H        -0.728819        -1.926003        -0.510497
 H        -0.747422         1.222955         1.865806
 H        -2.053507         2.291177         1.428917
