19
Iteration:  4409charge 0 multiplicity 1
 C        -3.395725         0.070997         2.822948
 C        -2.457707         0.148931         1.625820
 C        -3.114379        -0.353649         0.390966
 C        -1.983664        -1.180602         0.988896
 C        -0.573244        -1.269029         0.307089
 C        -0.280447         0.100130        -0.487692
 O         0.410948         0.080391        -1.483549
 O        -0.608839         1.251519         0.149078
 C        -1.375410         1.191209         1.424380
 H        -4.309291         0.732875         2.952591
 H        -3.938119        -0.905181         2.962811
 H        -3.012213         0.157396         3.873640
 H        -4.162590        -0.803769         0.433365
 H        -2.913611         0.164967        -0.592446
 H        -2.256189        -2.099061         1.495043
 H         0.282024        -1.425958         0.982509
 H        -0.621542        -2.084808        -0.459477
 H        -0.675184         1.266606         2.301207
 H        -1.813533         2.231195         1.415270
