19
Iteration:  4983
 C        -3.239653         0.110014         2.975476
 C        -2.413483         0.148745         1.633793
 C        -3.161783        -0.394041         0.311003
 C        -2.003291        -1.160280         0.976158
 C        -0.661974        -1.329538         0.183516
 C        -0.211876        -0.021960        -0.421899
 O         0.543435         0.171476        -1.343359
 O        -0.720451         1.159833         0.073823
 C        -1.492882         1.328316         1.386328
 H        -3.687974         1.163257         3.002710
 H        -4.045942        -0.659243         2.852337
 H        -2.581338        -0.009303         3.862503
 H        -4.216546        -0.611030         0.399563
 H        -3.119613         0.107810        -0.624308
 H        -2.066977        -2.100223         1.508914
 H         0.054300        -1.932509         0.803059
 H        -0.946621        -2.147185        -0.539729
 H        -0.917917         1.548592         2.236936
 H        -2.170971         2.202164         1.165824
