19
Iteration:  1286charge 0 multiplicity 1
 C        -3.277108         0.347400         2.822431
 C        -2.409114         0.057114         1.646415
 C        -3.002009        -0.657852         0.356838
 C        -1.858795        -1.279283         1.117554
 C        -0.523884        -1.125904         0.425319
 C        -0.359192         0.042573        -0.460587
 O         0.507870         0.118930        -1.337943
 O        -0.954540         1.248258        -0.098061
 C        -1.535124         1.201832         1.288827
 H        -3.869527         1.205094         2.633981
 H        -3.881104        -0.532987         3.012650
 H        -2.731500         0.442808         3.741563
 H        -4.014929        -0.918079         0.631223
 H        -2.897396        -0.199939        -0.622648
 H        -1.993717        -2.278807         1.603645
 H         0.236630        -0.958975         1.237389
 H        -0.165391        -2.000068        -0.088180
 H        -0.596520         1.243308         1.827191
 H        -2.123967         2.126993         1.517115
