19
Iteration:   899charge 0 multiplicity 1
 C        -2.079838         0.291136         2.940987
 C        -2.382819         0.036219         1.424915
 C        -3.548579        -0.849621         0.943744
 C        -2.076057        -1.239773         0.698916
 C        -1.031511        -1.101929        -0.438224
 C        -0.177686         0.158683        -0.136559
 O         1.051934         0.203059        -0.140868
 O        -0.917461         1.262689        -0.064462
 C        -2.313328         1.230087         0.419279
 H        -3.065794         0.485464         3.457622
 H        -1.546495        -0.611723         3.326291
 H        -1.405633         1.131562         3.327811
 H        -4.112099        -1.464910         1.613376
 H        -4.277006        -0.427791         0.181672
 H        -1.774507        -2.019905         1.376477
 H        -0.570521        -2.116175        -0.422815
 H        -1.460144        -1.006363        -1.443368
 H        -2.382890         2.142329         1.029914
 H        -2.986018         1.180175        -0.475870
