19
Iteration:  4945charge 0 multiplicity 1
 C        -3.127764         0.285983         2.880299
 C        -2.440012        -0.002936         1.506355
 C        -3.264329        -0.537321         0.264391
 C        -2.070751        -1.254164         0.856260
 C        -0.702173        -1.211981         0.314420
 C        -0.289239         0.105043        -0.428894
 O         0.471247         0.110592        -1.386584
 O        -0.595511         1.257974         0.204298
 C        -1.456786         1.187512         1.465548
 H        -3.712822         1.239477         2.877399
 H        -3.827129        -0.473742         3.244076
 H        -2.404415         0.362687         3.725872
 H        -4.282684        -0.758476         0.594208
 H        -2.986398        -0.199972        -0.774881
 H        -2.262597        -2.114302         1.538156
 H         0.047806        -1.322140         1.070136
 H        -0.512971        -1.875882        -0.492128
 H        -0.632248         1.279492         2.261011
 H        -1.984076         2.134096         1.455324
