19
Iteration:  2289charge 0 multiplicity 1
 C        -3.198852         0.165757         2.837970
 C        -2.436801         0.120187         1.533485
 C        -3.081463        -0.709032         0.432286
 C        -1.797096        -1.210255         1.226495
 C        -0.574991        -1.212759         0.271120
 C        -0.293103         0.126936        -0.394056
 O         0.656387         0.177021        -1.167207
 O        -1.108625         1.231221        -0.177018
 C        -1.573934         1.343740         1.222606
 H        -3.296022         1.173560         3.229382
 H        -4.130856        -0.418047         2.841006
 H        -2.468361        -0.339356         3.548385
 H        -4.084887        -0.999657         0.717503
 H        -3.056070        -0.523753        -0.674064
 H        -1.938268        -2.124322         1.834945
 H         0.319694        -1.330293         0.761671
 H        -0.488758        -1.889628        -0.527585
 H        -0.711328         1.291904         1.836471
 H        -2.201276         2.176167         1.266443
