19
Iteration:  3739charge 0 multiplicity 1
 C        -3.277720         0.314820         2.868651
 C        -2.440544         0.091300         1.521983
 C        -3.218951        -0.322922         0.252078
 C        -2.092970        -1.270176         0.802255
 C        -0.635689        -1.236646         0.296622
 C        -0.220858         0.084088        -0.392704
 O         0.314572         0.075109        -1.457980
 O        -0.593104         1.197318         0.260463
 C        -1.273889         1.084075         1.560612
 H        -3.691709        -0.601607         3.299856
 H        -2.738112         0.973176         3.613907
 H        -4.070324         1.028685         2.579849
 H        -4.182254        -0.844022         0.558832
 H        -3.178115         0.057360        -0.784736
 H        -2.204662        -2.261814         1.193669
 H         0.006767        -1.477431         1.108890
 H        -0.387116        -2.038113        -0.355313
 H        -0.525822         0.719776         2.297608
 H        -1.406647         2.186872         1.619275
