19
Iteration:  2389
 C        -2.946648        -0.008351         2.861185
 C        -2.435717         0.104621         1.517599
 C        -3.184243        -0.709555         0.427483
 C        -1.893075        -1.185594         1.157712
 C        -0.665798        -1.196436         0.332500
 C        -0.232487         0.138736        -0.355504
 O         0.672842         0.064320        -1.179889
 O        -0.911279         1.342501        -0.141938
 C        -1.836902         1.415008         1.088800
 H        -3.855196         0.663058         3.031799
 H        -3.076718        -1.000408         3.341118
 H        -2.286339         0.548605         3.615349
 H        -4.320228        -0.842682         0.736364
 H        -2.912843        -0.326114        -0.602822
 H        -1.935777        -1.996058         1.881179
 H         0.136016        -1.138951         1.017414
 H        -0.466907        -2.090169        -0.225328
 H        -1.246157         1.832493         2.027681
 H        -2.642165         2.177549         0.849049
