19
Iteration:  4303charge 0 multiplicity 1
 C        -3.168743         0.017716         2.942749
 C        -2.433934         0.097348         1.600986
 C        -3.229776        -0.318977         0.371327
 C        -2.104077        -1.181036         0.852276
 C        -0.733994        -1.218948         0.216260
 C        -0.235489         0.022267        -0.422143
 O         0.622308         0.115043        -1.265452
 O        -0.710495         1.211476         0.120134
 C        -1.474249         1.291051         1.333634
 H        -4.179804        -0.316537         2.666348
 H        -2.689344        -0.627921         3.664390
 H        -3.242090         1.023108         3.419244
 H        -4.176259        -0.871207         0.601447
 H        -3.112784         0.183907        -0.649896
 H        -2.403198        -2.190541         1.255921
 H         0.030138        -1.540838         1.004516
 H        -0.647817        -1.991274        -0.593486
 H        -0.616779         1.306641         2.002247
 H        -1.744227         2.327422         1.104214
