19
Iteration:  1379
 C        -3.154586         0.182800         2.834873
 C        -2.543796         0.128906         1.444644
 C        -3.155492        -0.706101         0.447607
 C        -1.864019        -1.200935         1.116648
 C        -0.443587        -1.175011         0.463038
 C        -0.195367         0.073258        -0.304351
 O         0.221008         0.076571        -1.465772
 O        -0.475708         1.248599         0.264050
 C        -1.777731         1.398600         0.970528
 H        -3.918946         1.012560         2.860025
 H        -3.555882        -0.797928         3.155388
 H        -2.342215         0.313214         3.583012
 H        -4.018543        -1.386133         0.509882
 H        -2.901865        -0.378640        -0.532934
 H        -2.122469        -1.930438         1.870757
 H         0.298982        -1.495251         1.083138
 H        -0.486181        -1.831903        -0.425448
 H        -1.582059         1.900617         1.975636
 H        -2.437430         2.012247         0.362594
