19
Iteration:  3276charge 0 multiplicity 1
 C        -3.348597         0.183742         2.830542
 C        -2.429188         0.035228         1.581777
 C        -3.109520        -0.466043         0.349219
 C        -1.944855        -1.232862         0.988899
 C        -0.429059        -1.206168         0.387363
 C        -0.244410         0.101866        -0.412595
 O         0.442987         0.103652        -1.461496
 O        -0.872696         1.279498         0.087154
 C        -1.447258         1.185796         1.435173
 H        -4.402275         0.472775         2.770330
 H        -3.328013        -0.664638         3.462980
 H        -2.953247         1.026879         3.381859
 H        -4.119827        -0.855846         0.418470
 H        -2.836836        -0.039416        -0.658834
 H        -2.287406        -2.164130         1.348253
 H         0.376764        -1.493987         1.160443
 H        -0.415992        -1.947400        -0.463389
 H        -0.569385         1.203219         2.154145
 H        -1.917490         2.151658         1.374861
