19
Iteration:  2453charge 0 multiplicity 1
 C        -3.259615         0.337138         2.803623
 C        -2.490677         0.009595         1.524634
 C        -3.064569        -0.874495         0.488909
 C        -1.830475        -1.322090         1.183478
 C        -0.600095        -1.139289         0.314629
 C        -0.285965         0.120950        -0.436592
 O         0.475841         0.227293        -1.354300
 O        -0.777787         1.298965         0.026580
 C        -1.583254         1.296173         1.238432
 H        -3.807789         1.208245         2.508665
 H        -3.887783        -0.527988         2.988185
 H        -2.520422         0.600199         3.593589
 H        -4.109917        -1.285344         0.791033
 H        -3.088472        -0.575624        -0.611617
 H        -1.949539        -2.290442         1.668473
 H         0.263811        -1.227329         1.013663
 H        -0.443382        -1.929984        -0.463935
 H        -0.818887         1.321398         2.076169
 H        -2.191770         2.192745         1.160398
