19
Iteration:  2064charge 0 multiplicity 1
 C        -3.195303        -0.070875         2.857079
 C        -2.504886         0.153333         1.507871
 C        -3.038265        -0.605193         0.378128
 C        -1.874940        -1.236647         1.101872
 C        -0.438997        -0.997443         0.617828
 C        -0.328085         0.101254        -0.469235
 O         0.431740        -0.050358        -1.456305
 O        -0.773565         1.323204        -0.000732
 C        -1.688969         1.390892         1.175586
 H        -3.508275         0.950608         3.209402
 H        -3.950663        -0.832988         2.786468
 H        -2.469882        -0.392205         3.606104
 H        -3.982820        -0.948887         0.778496
 H        -3.015972        -0.111575        -0.580165
 H        -1.982369        -2.103055         1.785073
 H         0.109458        -0.671067         1.442888
 H        -0.006766        -1.832416         0.107581
 H        -1.226711         1.653584         2.161477
 H        -2.425795         2.134083         0.860166
