19
Iteration:  2034
 C        -3.087597         0.070939         2.906354
 C        -2.527870         0.115163         1.506142
 C        -3.096748        -0.668706         0.363872
 C        -1.891362        -1.162534         1.033166
 C        -0.462869        -1.209357         0.518929
 C        -0.157691         0.095714        -0.325427
 O         0.415926         0.120785        -1.379925
 O        -0.835880         1.266745        -0.021293
 C        -1.750111         1.352612         1.161009
 H        -3.847595         0.951767         2.858771
 H        -3.595753        -0.800078         3.390508
 H        -2.346113         0.531843         3.612061
 H        -3.924730        -1.342795         0.458403
 H        -3.146255        -0.019918        -0.543732
 H        -1.959828        -1.972671         1.676434
 H         0.324894        -1.422151         1.408112
 H        -0.322796        -1.986700        -0.324152
 H        -1.137116         1.642339         2.044768
 H        -2.398713         2.130039         0.750853
