19
Iteration:   872
 C        -2.134771         0.137768         2.868456
 C        -2.512222         0.077724         1.452211
 C        -3.563134        -0.866474         0.843294
 C        -2.046324        -1.239059         0.907659
 C        -1.044326        -1.050882        -0.223947
 C        -0.188999         0.235952        -0.227692
 O         0.982411         0.172575        -0.290912
 O        -0.801858         1.391575        -0.037189
 C        -2.207487         1.217521         0.408779
 H        -2.820757         0.358120         3.641238
 H        -1.827417        -0.889041         3.092506
 H        -1.319433         0.746626         3.065305
 H        -4.238765        -1.425134         1.532782
 H        -3.987713        -0.671121        -0.133099
 H        -1.793688        -2.032282         1.713094
 H        -0.509696        -1.991445        -0.092707
 H        -1.537224        -1.287966        -1.237655
 H        -2.568078         2.224372         0.763343
 H        -2.667767         0.844543        -0.518590
