19
Iteration:  2085
 C        -3.245008         0.054527         2.889147
 C        -2.450656         0.122910         1.536285
 C        -3.035184        -0.688489         0.239711
 C        -1.860820        -1.185828         1.125872
 C        -0.411557        -1.035701         0.640087
 C        -0.231498         0.080522        -0.348907
 O         0.277560         0.052058        -1.467856
 O        -0.848347         1.284301        -0.056159
 C        -1.587278         1.336755         1.215865
 H        -3.480334         1.056502         3.283590
 H        -4.085139        -0.533985         2.615770
 H        -2.761488        -0.483109         3.690961
 H        -3.980282        -1.250032         0.207755
 H        -2.657766        -0.241984        -0.669040
 H        -1.893000        -2.102191         1.738699
 H         0.260782        -0.634465         1.376044
 H        -0.088748        -1.964865         0.242368
 H        -0.813721         1.409519         2.037841
 H        -2.274289         2.185792         1.160302
