19
Iteration:  4028charge 0 multiplicity 1
 C        -3.361013         0.055663         2.915195
 C        -2.503822         0.188444         1.583921
 C        -3.199387        -0.369069         0.328179
 C        -2.039601        -1.130714         0.989287
 C        -0.711511        -1.182946         0.256827
 C        -0.272053         0.023674        -0.510324
 O         0.526677         0.121957        -1.456539
 O        -0.543961         1.130938         0.150035
 C        -1.364281         1.195917         1.461974
 H        -4.443800        -0.072337         2.682400
 H        -3.056305        -0.854874         3.399026
 H        -3.253433         0.991454         3.444216
 H        -4.140039        -0.821191         0.588673
 H        -3.270723         0.284736        -0.541666
 H        -2.303610        -2.091226         1.480379
 H         0.012662        -1.177854         1.129916
 H        -0.457567        -2.156657        -0.267640
 H        -0.543380         1.223781         2.188412
 H        -1.600573         2.293007         1.381059
