19
Iteration:  3849
 C        -3.162340         0.258956         2.950472
 C        -2.482677         0.059150         1.642836
 C        -3.260885        -0.269256         0.346178
 C        -2.097477        -1.220254         0.764218
 C        -0.641405        -1.289887         0.236214
 C        -0.183853        -0.000351        -0.412344
 O         0.488620         0.131447        -1.364837
 O        -0.636475         1.136589         0.174628
 C        -1.468731         1.161892         1.356272
 H        -4.200286        -0.039922         2.903497
 H        -2.561204        -0.253512         3.776675
 H        -2.988848         1.293935         3.290736
 H        -4.268836        -0.678825         0.434442
 H        -3.011595         0.252324        -0.610950
 H        -2.414623        -2.111096         1.205683
 H         0.057773        -1.398622         1.131482
 H        -0.558744        -2.103953        -0.441762
 H        -0.899345         1.189749         2.328013
 H        -1.977084         2.190278         1.303688
