19
Iteration:  3426charge 0 multiplicity 1
 C        -3.117156         0.155067         2.827784
 C        -2.484870         0.065759         1.486348
 C        -3.187681        -0.474632         0.231764
 C        -2.063261        -1.225157         0.994754
 C        -0.706151        -1.155984         0.345195
 C        -0.301818         0.101324        -0.353246
 O         0.429366         0.080190        -1.351478
 O        -0.717451         1.329150         0.086673
 C        -1.296933         1.131336         1.454711
 H        -2.425997         0.359193         3.620348
 H        -4.099446         0.694599         2.756361
 H        -3.590087        -0.853657         3.126455
 H        -4.245737        -0.581124         0.351246
 H        -2.812682        -0.008548        -0.729854
 H        -2.314015        -2.108306         1.561975
 H         0.085493        -1.229151         1.067269
 H        -0.704958        -2.012532        -0.275317
 H        -0.489890         0.926967         2.169748
 H        -1.661844         2.131809         1.624467
