19
Iteration:   357charge 0 multiplicity 1
 C        -2.821249         0.041589         3.027922
 C        -2.552359         0.116848         1.538126
 C        -3.443039        -0.595456         0.529029
 C        -2.064069        -1.149615         0.942229
 C        -0.843430        -1.219974         0.078944
 C        -0.171377         0.100895        -0.345658
 O         0.899716         0.119377        -0.956619
 O        -0.705755         1.278409        -0.049567
 C        -1.775089         1.319140         0.936446
 H        -1.995563         0.252805         3.762263
 H        -3.565571         0.760866         3.301776
 H        -3.262382        -0.868222         3.258939
 H        -4.395752        -1.059801         0.968888
 H        -3.591158        -0.212475        -0.496354
 H        -2.096579        -1.961956         1.611565
 H        -0.068300        -1.633711         0.675546
 H        -0.926056        -1.846416        -0.851206
 H        -1.364803         1.872903         1.764164
 H        -2.534812         2.011393         0.511717
