19
Iteration:  4391charge 0 multiplicity 1
 C        -3.369297         0.078106         2.914689
 C        -2.374317         0.083246         1.659502
 C        -3.048988        -0.327128         0.281085
 C        -1.959154        -1.201619         0.936751
 C        -0.669008        -1.232280         0.208260
 C        -0.196306         0.049806        -0.364627
 O         0.382151         0.069497        -1.405913
 O        -0.724554         1.209784         0.118836
 C        -1.386248         1.307759         1.426188
 H        -4.204998         0.639160         2.513300
 H        -3.612485        -0.944121         3.137187
 H        -2.945658         0.708799         3.706272
 H        -4.071849        -0.709682         0.441660
 H        -2.849394         0.308547        -0.556461
 H        -2.189651        -2.240721         1.337348
 H         0.031920        -1.637880         0.925145
 H        -0.640856        -1.997320        -0.570814
 H        -0.761680         1.160530         2.332156
 H        -1.993925         2.187707         1.472253
