19
Iteration:  4490charge 0 multiplicity 1
 C        -3.274909         0.119402         2.865021
 C        -2.416439         0.080500         1.571208
 C        -3.019291        -0.316407         0.212066
 C        -1.995858        -1.224358         0.928731
 C        -0.530833        -1.220357         0.426640
 C        -0.278511         0.009967        -0.433401
 O         0.247775         0.110873        -1.464021
 O        -0.651900         1.178613         0.183349
 C        -1.458315         1.252820         1.419720
 H        -3.328529         1.193285         3.308423
 H        -4.313421        -0.279834         2.683536
 H        -2.691098        -0.522547         3.644645
 H        -4.025797        -0.643336         0.261440
 H        -2.890468         0.376294        -0.645189
 H        -2.332158        -2.233027         1.298053
 H         0.162452        -1.003710         1.210884
 H        -0.315858        -2.201353         0.005194
 H        -0.816797         1.103507         2.348632
 H        -2.054689         2.194885         1.377050
