19
Iteration:   767
 C        -2.907268         0.309205         2.877722
 C        -2.547428         0.161927         1.417854
 C        -3.328998        -1.049323         0.801144
 C        -1.843000        -1.138526         1.096251
 C        -0.987639        -1.103102        -0.221951
 C        -0.155868         0.141929        -0.358267
 O         0.869048         0.138022        -1.013127
 O        -0.540283         1.221991         0.388946
 C        -1.990738         1.348321         0.714666
 H        -3.950928         0.844809         3.001800
 H        -3.015889        -0.713436         3.414175
 H        -2.048526         0.772277         3.533041
 H        -4.019293        -1.561378         1.497973
 H        -3.616499        -0.990101        -0.208514
 H        -1.603962        -1.795697         1.856330
 H        -0.313508        -2.001556        -0.223204
 H        -1.730546        -1.188930        -0.969536
 H        -2.125817         2.292063         1.324903
 H        -2.439443         1.577651        -0.259813
