19
Iteration:  4186charge 0 multiplicity 1
 C        -3.195395         0.179374         2.877536
 C        -2.503649         0.124330         1.581738
 C        -3.076835        -0.360104         0.226943
 C        -2.089844        -1.214046         0.892766
 C        -0.715517        -1.347644         0.113556
 C        -0.242567         0.080447        -0.387366
 O         0.490574         0.090236        -1.345076
 O        -0.700946         1.232006         0.207590
 C        -1.393852         1.238599         1.543915
 H        -3.247531        -0.815894         3.311973
 H        -2.779916         0.882075         3.644843
 H        -4.245833         0.517684         3.088489
 H        -4.103956        -0.689394         0.262025
 H        -2.823783         0.293256        -0.645888
 H        -2.364483        -2.187281         1.423395
 H         0.062880        -1.717430         0.772871
 H        -0.767075        -2.014767        -0.742256
 H        -0.564594         1.027624         2.245107
 H        -1.945960         2.175638         1.538217
