19
Iteration:  4721charge 0 multiplicity 1
 C        -3.110163         0.137606         2.839167
 C        -2.429786         0.116512         1.481286
 C        -3.243690        -0.427415         0.307886
 C        -2.100179        -1.154228         0.967994
 C        -0.711219        -1.209855         0.285118
 C        -0.290398         0.104527        -0.408491
 O         0.553909         0.050006        -1.306999
 O        -0.760514         1.294442         0.103309
 C        -1.383934         1.135780         1.444340
 H        -3.829177         1.010197         3.034600
 H        -3.650363        -0.845029         2.797895
 H        -2.275488         0.090583         3.623379
 H        -4.147970        -0.817349         0.683759
 H        -3.123070         0.052485        -0.642246
 H        -2.262470        -2.134059         1.370145
 H         0.129343        -1.409291         0.975149
 H        -0.713999        -1.990487        -0.485616
 H        -0.503143         0.951600         2.145425
 H        -1.847538         2.186902         1.634338
