19
Iteration:  4725charge 0 multiplicity 1
 C        -3.129346         0.117108         2.820953
 C        -2.419372         0.139768         1.505949
 C        -3.219049        -0.408140         0.309233
 C        -2.052929        -1.166760         1.020332
 C        -0.713538        -1.191950         0.267485
 C        -0.327198         0.064675        -0.409612
 O         0.556792         0.057488        -1.317916
 O        -0.749839         1.303202         0.134649
 C        -1.391501         1.153845         1.395899
 H        -3.906612         0.895665         3.112186
 H        -3.702406        -0.840184         2.845377
 H        -2.379973         0.117397         3.658835
 H        -4.229074        -0.788684         0.540002
 H        -3.114666         0.041332        -0.689215
 H        -2.252523        -2.187874         1.321297
 H         0.085510        -1.482287         0.944105
 H        -0.847661        -2.022959        -0.446041
 H        -0.570476         0.917956         1.998114
 H        -1.717071         2.120416         1.612138
