19
Iteration:  4642
 C        -3.164530        -0.021672         2.935024
 C        -2.434892         0.165160         1.553052
 C        -3.169215        -0.363886         0.361552
 C        -2.020526        -1.171804         0.950552
 C        -0.737118        -1.322112         0.222367
 C        -0.257066         0.077160        -0.375220
 O         0.529879         0.068233        -1.219352
 O        -0.750403         1.274129         0.021165
 C        -1.425227         1.371696         1.295904
 H        -3.547538         0.965267         3.153772
 H        -3.929692        -0.776757         2.745226
 H        -2.406119        -0.439121         3.602881
 H        -4.036527        -1.028342         0.630858
 H        -3.155503         0.102880        -0.662931
 H        -2.095556        -2.076511         1.668751
 H         0.062159        -1.858094         0.812833
 H        -0.894194        -1.866407        -0.730937
 H        -0.642566         1.425764         2.125621
 H        -2.081840         2.303242         1.394409
