19
Iteration:  1776charge 0 multiplicity 1
 C        -3.353358         0.327545         2.778285
 C        -2.455531         0.085650         1.495142
 C        -3.135789        -0.784551         0.405331
 C        -1.842922        -1.218387         1.153266
 C        -0.394885        -1.092474         0.444180
 C        -0.200346         0.190099        -0.443012
 O         0.377460         0.085513        -1.515295
 O        -0.845143         1.301757         0.028913
 C        -1.499455         1.175360         1.401300
 H        -4.223208         0.943119         2.546322
 H        -3.896844        -0.642951         2.908177
 H        -2.976613         0.724076         3.765125
 H        -3.891511        -1.567983         0.651639
 H        -3.126668        -0.777473        -0.661525
 H        -1.994669        -2.045462         1.820074
 H         0.395559        -1.063665         1.285567
 H        -0.290948        -1.999118        -0.117845
 H        -0.738068         0.908388         2.125374
 H        -1.949240         2.171425         1.521500
