19
Iteration:  3342charge 0 multiplicity 1
 C        -3.158316         0.149662         2.823817
 C        -2.399488         0.066437         1.527119
 C        -3.039605        -0.474656         0.236571
 C        -1.947276        -1.182494         0.909130
 C        -0.550482        -1.291565         0.335527
 C        -0.291952         0.082031        -0.311699
 O         0.219665         0.058884        -1.365147
 O        -0.686616         1.267871         0.268591
 C        -1.535448         1.326897         1.313554
 H        -3.619158        -0.790092         3.213455
 H        -2.487499         0.549308         3.560358
 H        -3.980688         0.872471         2.611948
 H        -4.020635        -0.914496         0.183495
 H        -2.756995        -0.000288        -0.773344
 H        -2.202546        -2.055165         1.489503
 H         0.297901        -1.546108         1.074394
 H        -0.460658        -2.062268        -0.518143
 H        -0.870305         1.366672         2.299225
 H        -2.123249         2.273506         1.287752
