19
Iteration:  3595charge 0 multiplicity 1
 C        -3.218356         0.105000         2.859557
 C        -2.419599         0.148624         1.583982
 C        -3.164499        -0.299645         0.339771
 C        -2.081486        -1.149709         0.887291
 C        -0.727637        -1.287974         0.218874
 C        -0.216404         0.067671        -0.339202
 O         0.515454         0.004214        -1.337575
 O        -0.774108         1.233822         0.096399
 C        -1.314480         1.225142         1.440947
 H        -4.333740        -0.073196         2.698956
 H        -2.781367        -0.659434         3.510135
 H        -3.108999         1.008849         3.481355
 H        -4.148420        -0.489388         0.694179
 H        -3.176728         0.292972        -0.641006
 H        -2.530482        -2.149351         1.167594
 H         0.031163        -1.695577         0.833195
 H        -0.783497        -1.988594        -0.637115
 H        -0.415652         1.032833         2.083288
 H        -1.662211         2.240267         1.660450
