19
Iteration:  4907charge 0 multiplicity 1
 C        -3.259856         0.107280         2.804725
 C        -2.408095         0.197305         1.541712
 C        -3.142706        -0.406985         0.223685
 C        -2.029663        -1.151700         0.995692
 C        -0.589509        -1.191191         0.345330
 C        -0.231029         0.079355        -0.379821
 O         0.331730         0.069068        -1.452259
 O        -0.691598         1.196898         0.175474
 C        -1.362022         1.179986         1.468871
 H        -3.938190         0.950230         2.866958
 H        -3.834791        -0.810312         2.984174
 H        -2.558614         0.224939         3.648347
 H        -4.183435        -0.766038         0.361972
 H        -2.975767        -0.108211        -0.782423
 H        -2.259248        -1.946161         1.692346
 H         0.093756        -1.628432         1.133515
 H        -0.661597        -1.978000        -0.463885
 H        -0.678390         0.805734         2.321560
 H        -1.731994         2.273392         1.546770
