19
Iteration:  1053
 C        -2.581103         0.226271         2.947673
 C        -2.560205         0.131032         1.429136
 C        -3.479008        -0.884047         0.768539
 C        -1.990717        -1.155882         0.941610
 C        -0.804204        -1.196947        -0.046857
 C        -0.168501         0.115694        -0.236877
 O         0.855667         0.182641        -0.931476
 O        -0.686235         1.269418         0.302399
 C        -2.085616         1.327385         0.548703
 H        -3.474776         0.689092         3.358477
 H        -2.650351        -0.807634         3.316589
 H        -1.656314         0.751745         3.282590
 H        -4.299901        -1.317737         1.454822
 H        -3.722385        -0.654910        -0.277269
 H        -1.746447        -1.825329         1.854089
 H         0.069391        -1.680296         0.403845
 H        -0.977138        -1.613960        -1.066631
 H        -2.348972         2.304510         0.916003
 H        -2.619696         1.203265        -0.489684
