19
Iteration:  2082
 C        -3.226936         0.032091         2.865046
 C        -2.442139         0.094481         1.540750
 C        -3.058565        -0.667995         0.274080
 C        -1.862309        -1.164992         1.132416
 C        -0.442283        -1.034885         0.635069
 C        -0.243851         0.080757        -0.360251
 O         0.295521         0.044763        -1.468417
 O        -0.820289         1.297445        -0.062888
 C        -1.611920         1.342497         1.226464
 H        -3.506235         0.976515         3.275753
 H        -4.142817        -0.553592         2.654199
 H        -2.698668        -0.503689         3.671238
 H        -4.001017        -1.282274         0.115422
 H        -2.623957        -0.287131        -0.631867
 H        -1.931664        -2.097614         1.775629
 H         0.306374        -0.550241         1.403562
 H        -0.042197        -2.002445         0.338343
 H        -0.784812         1.475758         1.914528
 H        -2.292945         2.205730         1.098336
