19
Iteration:  2314
 C        -3.196033         0.318241         2.978494
 C        -2.364807        -0.002476         1.674196
 C        -3.093260        -0.607596         0.449876
 C        -1.816195        -1.279259         0.998789
 C        -0.551648        -1.255167         0.268708
 C        -0.227274         0.075245        -0.359894
 O         0.665919         0.325083        -1.146115
 O        -1.115258         1.096677        -0.229937
 C        -1.658775         1.297254         1.185487
 H        -3.137223         1.457381         2.986947
 H        -4.198822        -0.115735         2.854646
 H        -2.820288        -0.002059         3.967418
 H        -4.084692        -1.238601         0.579887
 H        -3.091578        -0.176013        -0.557344
 H        -1.953753        -2.216161         1.543157
 H         0.329151        -1.524225         0.932551
 H        -0.419010        -1.910980        -0.569885
 H        -0.822376         1.424951         1.829458
 H        -2.478494         2.036866         0.989048
