19
Iteration:  4017
 C        -3.226957         0.096050         2.839383
 C        -2.512441         0.160067         1.551291
 C        -3.270057        -0.388864         0.352943
 C        -2.116792        -1.166482         0.918841
 C        -0.697484        -1.153041         0.303579
 C        -0.195374         0.044200        -0.451658
 O         0.489007         0.082867        -1.425289
 O        -0.562007         1.195075         0.187107
 C        -1.348260         1.185815         1.418607
 H        -4.298548        -0.112638         2.624417
 H        -2.793299        -0.696540         3.447484
 H        -3.173387         0.867039         3.605137
 H        -4.267628        -0.689904         0.584118
 H        -3.139886         0.048814        -0.667951
 H        -2.270335        -2.036815         1.589421
 H         0.102217        -1.334547         1.067803
 H        -0.668883        -2.003473        -0.462808
 H        -0.712028         1.086446         2.327240
 H        -1.955128         2.131311         1.382559
