19
Iteration:   651charge 0 multiplicity 1
 C        -3.149033         0.192943         2.910884
 C        -2.454953         0.102764         1.548970
 C        -3.078697        -0.623950         0.359261
 C        -1.863324        -1.182484         1.009524
 C        -0.507855        -1.162018         0.497880
 C        -0.249677         0.119318        -0.401924
 O         0.626778         0.163541        -1.209765
 O        -1.147475         1.138232        -0.189341
 C        -1.550497         1.288687         1.208183
 H        -3.297961         1.211660         3.230413
 H        -4.118990        -0.280711         2.960259
 H        -2.661417        -0.375167         3.668421
 H        -4.053062        -1.163606         0.693041
 H        -3.043054        -0.229211        -0.676245
 H        -2.094304        -2.082954         1.673963
 H         0.315226        -1.289378         1.204369
 H        -0.396139        -1.926569        -0.355128
 H        -0.755086         1.272594         1.932317
 H        -2.082556         2.250992         1.339676
