19
Iteration:  2231charge 0 multiplicity 1
 C        -3.129543         0.225262         2.865849
 C        -2.420560         0.015702         1.589452
 C        -3.125805        -0.660156         0.381304
 C        -1.869643        -1.210412         0.953030
 C        -0.410229        -1.117479         0.455088
 C        -0.222180         0.102602        -0.383484
 O         0.421595         0.088538        -1.425705
 O        -0.790261         1.237886         0.153923
 C        -1.804665         1.270431         1.135260
 H        -4.086432         0.725051         2.652435
 H        -3.376026        -0.775919         3.314014
 H        -2.484894         0.832697         3.519632
 H        -4.030123        -1.261162         0.585542
 H        -3.051843         0.055368        -0.388345
 H        -2.178829        -2.100610         1.553679
 H         0.224899        -1.071573         1.342050
 H        -0.160939        -1.993069        -0.233410
 H        -1.452905         1.781392         2.065124
 H        -2.471201         2.106732         0.863220
