19
Iteration:  4061
 C        -3.305438         0.164804         2.796512
 C        -2.403153         0.070788         1.578940
 C        -3.007808        -0.273840         0.260534
 C        -1.991081        -1.203087         0.963657
 C        -0.665188        -1.284313         0.278730
 C        -0.178412         0.108550        -0.319074
 O         0.333579         0.064899        -1.435588
 O        -0.751237         1.169217         0.121747
 C        -1.379415         1.179708         1.519031
 H        -4.394064         0.138379         2.714209
 H        -3.193804        -0.578350         3.540378
 H        -3.178233         1.007383         3.462972
 H        -4.052245        -0.521509         0.442983
 H        -2.681750         0.350719        -0.534605
 H        -2.517517        -2.095431         1.264376
 H         0.192903        -1.604196         0.916555
 H        -0.597519        -1.872589        -0.682447
 H        -0.666259         1.121588         2.332884
 H        -1.823312         2.189707         1.509134
