19
Iteration:  1342
 C        -3.223769         0.199079         2.760409
 C        -2.463475         0.131760         1.490140
 C        -3.056501        -0.815828         0.453914
 C        -1.857376        -1.282053         1.210371
 C        -0.565900        -1.205431         0.383102
 C        -0.382908         0.075812        -0.433089
 O         0.306890         0.099504        -1.454017
 O        -0.488146         1.272944         0.281042
 C        -1.725385         1.489936         1.064928
 H        -3.522202         1.195628         3.080836
 H        -4.179731        -0.306496         2.682132
 H        -2.591775        -0.040312         3.590611
 H        -4.018809        -1.305590         0.582343
 H        -2.802961        -0.747834        -0.658878
 H        -1.799644        -1.913157         2.104516
 H         0.355135        -1.247133         1.038551
 H        -0.412917        -1.954624        -0.363117
 H        -1.229343         2.045094         1.894220
 H        -2.353142         2.232145         0.549411
