19
Iteration:  2011
 C        -3.117073         0.315836         2.888858
 C        -2.438905         0.058863         1.524001
 C        -3.113233        -0.688307         0.352378
 C        -1.893005        -1.263889         1.146553
 C        -0.521784        -1.214115         0.303105
 C        -0.318529         0.107931        -0.428912
 O         0.558848         0.226261        -1.286195
 O        -0.928958         1.174393         0.021696
 C        -1.674323         1.271498         1.223769
 H        -4.121263         0.899248         2.868334
 H        -3.265386        -0.654401         3.451118
 H        -2.438315         0.946826         3.522759
 H        -4.069295        -1.253068         0.345498
 H        -2.764930        -0.569183        -0.659223
 H        -1.894768        -2.175538         1.700215
 H         0.200751        -1.172750         1.213886
 H        -0.228060        -2.045122        -0.423574
 H        -0.976646         1.543287         2.066572
 H        -2.364624         2.055696         0.914824
