19
Iteration:  3386charge 0 multiplicity 1
 C        -3.337257         0.132078         2.886275
 C        -2.439556         0.090325         1.596358
 C        -3.190159        -0.415334         0.277277
 C        -1.949603        -1.163913         0.989556
 C        -0.564851        -1.196724         0.360208
 C        -0.229759         0.037720        -0.416814
 O         0.374224         0.150910        -1.492310
 O        -0.638914         1.170834         0.098907
 C        -1.415462         1.196535         1.447818
 H        -3.018001        -0.562648         3.713975
 H        -3.301761         1.132864         3.263386
 H        -4.409206        -0.017023         2.663722
 H        -4.168763        -0.973316         0.256132
 H        -3.040581         0.228546        -0.605000
 H        -2.202236        -2.051271         1.604053
 H         0.213330        -1.335286         1.178653
 H        -0.389963        -2.064946        -0.365537
 H        -0.749873         1.221121         2.345771
 H        -1.935505         2.142915         1.431283
