19
Iteration:   457
 C        -3.395237         0.249370         2.753214
 C        -2.465421         0.133122         1.576703
 C        -3.051512        -0.609013         0.404122
 C        -1.866453        -1.229156         1.087188
 C        -0.507480        -1.144798         0.373312
 C        -0.228759         0.104219        -0.396816
 O         0.434707         0.124595        -1.373172
 O        -0.920796         1.200898        -0.011964
 C        -1.364739         1.208048         1.360872
 H        -4.400934        -0.307628         2.841551
 H        -2.806146        -0.102964         3.555586
 H        -3.680409         1.212483         3.096640
 H        -4.007821        -1.062277         0.597528
 H        -3.077884        -0.258965        -0.668199
 H        -2.099025        -2.196026         1.593251
 H         0.380355        -1.218368         1.035537
 H        -0.397548        -1.891901        -0.450435
 H        -0.541422         0.917874         2.003919
 H        -1.801213         2.198540         1.536336
