19
Iteration:  3720
 C        -3.238989         0.235766         2.709287
 C        -2.511107         0.189696         1.481161
 C        -3.141108        -0.404188         0.298331
 C        -2.091843        -1.150191         0.982316
 C        -0.730520        -1.295370         0.270759
 C        -0.283831         0.060421        -0.397362
 O         0.300824         0.095221        -1.411737
 O        -0.537127         1.273345         0.241843
 C        -1.193135         1.064285         1.517516
 H        -3.275079        -0.758720         3.131915
 H        -2.806524         0.777211         3.609982
 H        -4.304519         0.518802         2.750595
 H        -4.178734        -0.702723         0.362401
 H        -2.943300        -0.094427        -0.798565
 H        -2.370041        -1.967526         1.599022
 H         0.018990        -1.662073         1.033064
 H        -0.663720        -1.967324        -0.578137
 H        -0.614815         0.492350         2.212905
 H        -1.554146         2.107007         1.936070
