19
Iteration:  1352charge 0 multiplicity 1
 C        -3.182815         0.177756         2.798481
 C        -2.360284         0.137553         1.439814
 C        -3.083648        -0.923802         0.422377
 C        -1.866454        -1.252988         1.207941
 C        -0.601909        -1.159328         0.354794
 C        -0.402649         0.109454        -0.440483
 O         0.276360         0.017977        -1.416596
 O        -0.419137         1.287809         0.299166
 C        -1.760867         1.592018         1.080481
 H        -3.613880         1.137256         2.908906
 H        -3.979974        -0.568585         2.722813
 H        -2.668901        -0.217645         3.650882
 H        -4.125612        -0.915584         0.587745
 H        -2.785168        -0.645121        -0.645232
 H        -2.021998        -2.035340         1.984140
 H         0.309408        -1.014241         1.105780
 H        -0.387937        -1.989092        -0.308629
 H        -1.663513         2.083109         2.028931
 H        -2.427482         2.139769         0.374473
