19
Iteration:  2681
 C        -3.026190         0.036758         2.871619
 C        -2.568102         0.177822         1.457916
 C        -3.177828        -0.807173         0.413696
 C        -1.954930        -1.177657         1.106243
 C        -0.623316        -1.046911         0.408411
 C        -0.224513         0.158180        -0.362981
 O         0.608614         0.065121        -1.210926
 O        -0.894257         1.323373        -0.138719
 C        -1.605609         1.346719         1.189507
 H        -3.919353         0.627153         2.992775
 H        -3.418435        -0.945959         3.192061
 H        -2.128331         0.292755         3.529445
 H        -4.178172        -1.230733         0.737554
 H        -3.296069        -0.763719        -0.723391
 H        -1.917962        -1.971125         1.828273
 H         0.125203        -1.243815         1.173186
 H        -0.436336        -1.782256        -0.400657
 H        -0.818243         1.283460         2.006297
 H        -2.040667         2.311614         1.126775
