19
Iteration:  2447charge 0 multiplicity 1
 C        -3.227107         0.354792         2.815814
 C        -2.450185         0.033347         1.578000
 C        -3.136839        -0.836693         0.468340
 C        -1.850429        -1.299281         1.151308
 C        -0.547667        -1.176643         0.330931
 C        -0.243446         0.129962        -0.467457
 O         0.537905         0.227158        -1.408793
 O        -0.804117         1.257882         0.056010
 C        -1.681559         1.268935         1.274849
 H        -4.005902         1.179800         2.593975
 H        -3.909062        -0.480697         3.093709
 H        -2.588004         0.640249         3.649260
 H        -4.003923        -1.339183         0.716290
 H        -3.069155        -0.652507        -0.598667
 H        -1.957086        -2.231336         1.716479
 H         0.407330        -1.274216         0.870278
 H        -0.520921        -1.910397        -0.459766
 H        -0.953966         1.442405         2.077808
 H        -2.251575         2.212682         1.049929
