19
Iteration:  2119charge 0 multiplicity 1
 C        -3.299720         0.349792         2.709817
 C        -2.429743        -0.003469         1.553093
 C        -2.939165        -0.664050         0.269480
 C        -1.728087        -1.233787         1.144519
 C        -0.283537        -1.069691         0.512667
 C        -0.276917         0.046181        -0.354325
 O         0.215458         0.100036        -1.475184
 O        -1.036059         1.242130         0.051523
 C        -1.527091         1.181673         1.369450
 H        -3.858066         1.328149         2.555057
 H        -4.173846        -0.256504         2.567982
 H        -2.865222         0.266282         3.693851
 H        -3.839743        -1.212842         0.229100
 H        -2.758775        -0.050103        -0.644402
 H        -1.848372        -2.156166         1.652094
 H         0.448542        -0.923194         1.258942
 H         0.034068        -1.969742        -0.017395
 H        -0.938336         1.134772         2.307048
 H        -2.033394         2.118374         1.601546
