19
Iteration:    89charge 0 multiplicity 1
 C        -3.387759         0.262940         2.633401
 C        -2.460663         0.110025         1.443255
 C        -2.989494        -0.543532         0.126968
 C        -1.938932        -1.253085         1.012019
 C        -0.492084        -1.115609         0.485642
 C        -0.277878         0.149759        -0.307098
 O        -0.063172         0.029808        -1.521449
 O        -0.440093         1.301203         0.360842
 C        -1.328226         1.111855         1.509219
 H        -4.279733        -0.245771         2.533518
 H        -2.884564        -0.171234         3.496656
 H        -3.625729         1.302158         2.870525
 H        -3.946423        -0.942544         0.319592
 H        -2.817657        -0.265613        -0.915684
 H        -2.262922        -2.278162         1.387105
 H         0.354487        -1.311919         1.178615
 H        -0.324240        -1.906176        -0.219116
 H        -0.691740         0.800361         2.294065
 H        -1.735281         2.096240         1.673225
