19
Iteration:  3943charge 0 multiplicity 1
 C        -3.226007         0.077580         2.977238
 C        -2.500486         0.162997         1.639202
 C        -3.288098        -0.233229         0.401185
 C        -2.085903        -1.139496         0.854653
 C        -0.690027        -1.315614         0.207565
 C        -0.186472         0.027693        -0.454124
 O         0.619915         0.075861        -1.351268
 O        -0.666133         1.146843         0.111975
 C        -1.395595         1.281314         1.348923
 H        -3.584236        -0.958454         3.181918
 H        -2.676630         0.423530         3.866839
 H        -4.139095         0.694429         3.086827
 H        -4.206661        -0.763155         0.503151
 H        -3.169783         0.206026        -0.612984
 H        -2.407594        -2.122545         1.130927
 H        -0.105610        -1.742418         0.959953
 H        -0.744191        -1.984637        -0.665220
 H        -0.650729         1.165660         2.138638
 H        -1.855274         2.223051         1.428638
