19
Iteration:   970charge 0 multiplicity 1
 C        -2.388631         0.380862         2.838368
 C        -2.535207         0.074354         1.313169
 C        -3.334618        -1.159294         1.072952
 C        -1.767193        -1.120549         0.872176
 C        -1.258718        -0.929589        -0.532045
 C        -0.188487         0.156562        -0.292752
 O         0.964687        -0.051437        -0.284291
 O        -0.727748         1.369084         0.247064
 C        -2.261824         1.276466         0.385056
 H        -2.711485         1.362069         3.197969
 H        -2.916100        -0.430846         3.366037
 H        -1.364330         0.222435         3.232060
 H        -3.854278        -1.584505         1.929897
 H        -3.869743        -1.346186         0.187020
 H        -1.096234        -1.485898         1.631955
 H        -0.577569        -1.634288        -0.973688
 H        -2.045575        -0.725825        -1.276111
 H        -2.572146         2.186433         0.919313
 H        -2.712290         1.244934        -0.574564
