19
Iteration:  3102charge 0 multiplicity 1
 C        -3.215582         0.139676         2.930929
 C        -2.468357         0.091175         1.572654
 C        -3.287122        -0.734283         0.528743
 C        -1.965439        -1.240005         1.007547
 C        -0.606978        -1.118778         0.366680
 C        -0.185986         0.177288        -0.444903
 O         0.720679         0.267775        -1.285170
 O        -0.931345         1.198796        -0.128596
 C        -1.490033         1.231559         1.172592
 H        -3.561245        -0.948705         3.271626
 H        -2.658054         0.463133         3.832371
 H        -4.060164         0.834687         2.736799
 H        -4.107875        -1.361796         0.952758
 H        -3.443061        -0.294683        -0.477035
 H        -1.967526        -2.087971         1.675457
 H         0.086021        -1.319853         1.138151
 H        -0.315164        -1.890743        -0.375419
 H        -0.655637         1.397566         1.898509
 H        -2.070993         2.227817         1.233121
