19
Iteration:   688
 C        -2.856007         0.041337         3.025155
 C        -2.515839         0.133084         1.492272
 C        -3.292349        -0.646292         0.438859
 C        -2.028318        -1.214057         1.000240
 C        -0.664947        -1.124916         0.404083
 C        -0.197263         0.064900        -0.417613
 O         0.796361         0.161530        -1.072107
 O        -0.905606         1.243824        -0.183845
 C        -1.810006         1.358451         1.018684
 H        -3.630225         0.881346         3.355029
 H        -3.187603        -1.046342         3.143915
 H        -1.936176         0.181753         3.682115
 H        -4.175624        -1.135219         0.693893
 H        -3.344860        -0.214591        -0.561398
 H        -2.132230        -2.050633         1.739747
 H         0.025394        -1.294083         1.231988
 H        -0.667437        -2.053025        -0.190560
 H        -1.103375         1.800871         1.761767
 H        -2.480858         2.136143         0.581074
