19
Iteration:  4020charge 0 multiplicity 1
 C        -3.277787         0.080791         2.861525
 C        -2.523882         0.183489         1.570089
 C        -3.236850        -0.389629         0.337069
 C        -2.100088        -1.170874         0.954792
 C        -0.693240        -1.143155         0.286056
 C        -0.223586         0.040511        -0.477402
 O         0.501272         0.098845        -1.429533
 O        -0.546437         1.158207         0.165885
 C        -1.350901         1.183523         1.447038
 H        -4.345851        -0.088365         2.546394
 H        -2.770307        -0.753900         3.359792
 H        -3.165781         0.939391         3.608550
 H        -4.316468        -0.738762         0.581664
 H        -3.295544         0.193842        -0.607070
 H        -2.224616        -2.012396         1.566183
 H        -0.003816        -1.285809         1.056863
 H        -0.591438        -2.010590        -0.372348
 H        -0.554752         1.154273         2.292804
 H        -1.885815         2.111243         1.318526
