19
Iteration:  2189charge 0 multiplicity 1
 C        -3.268249         0.135019         2.780596
 C        -2.512730         0.144896         1.459858
 C        -2.973780        -0.773539         0.284853
 C        -1.784803        -1.157790         1.202858
 C        -0.493828        -1.195845         0.444171
 C        -0.229176         0.120000        -0.374409
 O         0.213401         0.061215        -1.491691
 O        -0.686464         1.296895         0.176372
 C        -1.631115         1.406239         1.271322
 H        -4.330802         0.137178         2.635910
 H        -3.126405        -0.868797         3.252481
 H        -2.895316         0.956642         3.441712
 H        -3.953337        -1.324328         0.356607
 H        -2.830360        -0.300868        -0.663453
 H        -1.950045        -2.118626         1.763840
 H         0.304889        -1.159237         1.107673
 H        -0.368065        -2.075333        -0.201374
 H        -1.061538         1.625737         2.168527
 H        -2.260020         2.291661         1.236206
