19
Iteration:   641charge 0 multiplicity 1
 C        -3.252114         0.251508         2.905066
 C        -2.433637         0.050311         1.639838
 C        -3.010342        -0.604212         0.360329
 C        -1.880907        -1.223333         1.099181
 C        -0.504728        -1.132129         0.422792
 C        -0.257078         0.091988        -0.397052
 O         0.595366         0.209256        -1.288789
 O        -1.098515         1.150589        -0.155815
 C        -1.553497         1.187100         1.218416
 H        -3.186696         1.333300         3.113914
 H        -4.303315        -0.072711         2.776648
 H        -2.765567        -0.196927         3.750493
 H        -4.001565        -1.195569         0.434647
 H        -2.899162        -0.107343        -0.621474
 H        -2.080291        -2.270525         1.537581
 H         0.198911        -1.076149         1.234956
 H        -0.216334        -2.064274        -0.201130
 H        -0.624900         1.323251         1.740950
 H        -2.130941         2.151561         1.246915
