19
Iteration:  3199charge 0 multiplicity 1
 C        -3.247521         0.027393         2.988485
 C        -2.534641         0.047340         1.513380
 C        -3.314198        -0.656730         0.409759
 C        -1.935256        -1.179646         0.951546
 C        -0.575417        -1.029216         0.355180
 C        -0.161283         0.154994        -0.392515
 O         0.594452         0.063722        -1.378598
 O        -0.702100         1.261603         0.016025
 C        -1.552332         1.368661         1.213832
 H        -2.762131         0.777925         3.651870
 H        -4.302443         0.152858         2.999477
 H        -3.070709        -0.989624         3.405634
 H        -4.033181        -1.216800         1.138612
 H        -3.714707        -0.265705        -0.481502
 H        -2.084292        -2.129307         1.455264
 H         0.308478        -1.205128         1.097647
 H        -0.449346        -1.955738        -0.257460
 H        -1.032706         1.600445         2.195235
 H        -2.042593         2.274258         0.995908
