19
Iteration:  4698charge 0 multiplicity 1
 C        -3.056014         0.185392         2.984787
 C        -2.486104         0.063622         1.510133
 C        -3.312155        -0.384962         0.334090
 C        -2.148252        -1.279456         0.776959
 C        -0.645047        -1.218713         0.288117
 C        -0.166124         0.044560        -0.370181
 O         0.549973         0.133095        -1.279540
 O        -0.785938         1.246145         0.118372
 C        -1.441144         1.204613         1.297254
 H        -3.406454         1.252243         3.129249
 H        -3.941740        -0.469557         3.216503
 H        -2.221479         0.065562         3.746865
 H        -4.302497        -0.840572         0.528640
 H        -3.114422         0.171488        -0.574934
 H        -2.191711        -2.339759         1.110640
 H        -0.107914        -1.389313         1.259572
 H        -0.376951        -2.065087        -0.347858
 H        -0.559498         0.899012         1.964849
 H        -1.708312         2.306355         1.573985
