19
Iteration:  1277charge 0 multiplicity 1
 C        -3.203846         0.229990         2.783445
 C        -2.353228         0.016304         1.598539
 C        -3.061047        -0.587910         0.383302
 C        -1.940010        -1.255940         1.136030
 C        -0.555057        -1.068607         0.534095
 C        -0.358428         0.118307        -0.461837
 O         0.506442         0.106793        -1.276741
 O        -1.018772         1.230771        -0.165430
 C        -1.435324         1.200740         1.245045
 H        -3.988879         0.977542         2.490466
 H        -3.774304        -0.703705         2.955621
 H        -2.677432         0.584861         3.684192
 H        -4.033314        -1.026337         0.414824
 H        -2.803378        -0.228549        -0.649279
 H        -1.942351        -2.101312         1.832195
 H         0.242053        -0.979708         1.212859
 H        -0.386065        -1.958871         0.006318
 H        -0.506240         1.043681         1.918314
 H        -1.819800         2.193527         1.466285
