19
Iteration:  2371charge 0 multiplicity 1
 C        -2.906574         0.105738         2.896104
 C        -2.538419         0.146198         1.445303
 C        -3.260030        -0.798297         0.457555
 C        -1.910620        -1.245446         1.018655
 C        -0.623915        -1.096261         0.398376
 C        -0.288554         0.165127        -0.374900
 O         0.697254         0.058580        -1.092262
 O        -0.955022         1.335243        -0.151537
 C        -1.707836         1.354568         1.082832
 H        -3.710784         0.732985         3.378389
 H        -3.290927        -0.885721         3.186145
 H        -2.089771         0.262992         3.580440
 H        -4.007314        -1.387740         0.861450
 H        -3.282610        -0.501622        -0.598231
 H        -1.929802        -1.995028         1.793982
 H         0.255726        -1.329659         1.107310
 H        -0.413637        -1.698248        -0.511075
 H        -1.055856         1.667287         1.852425
 H        -2.285022         2.296167         1.043729
