19
Iteration:  1448charge 0 multiplicity 1
 C        -3.237379         0.209334         2.822087
 C        -2.459412         0.128645         1.535435
 C        -3.121102        -0.784632         0.473062
 C        -1.911425        -1.228108         1.136589
 C        -0.608198        -1.236775         0.407759
 C        -0.193400         0.181953        -0.393721
 O         0.537423         0.055832        -1.328428
 O        -0.898385         1.312219        -0.127148
 C        -1.502706         1.426543         1.270724
 H        -4.135099         0.681167         2.463472
 H        -3.441329        -0.837902         3.118251
 H        -2.752403         0.658423         3.731100
 H        -3.999512        -1.297607         0.829549
 H        -3.051029        -0.649790        -0.621777
 H        -1.961965        -2.051237         1.885159
 H         0.179483        -1.634323         0.964958
 H        -0.794904        -1.823148        -0.495684
 H        -0.659693         1.299317         1.892044
 H        -1.966446         2.447097         1.380505
