19
Iteration:   258
 C        -2.944164         0.141417         2.977436
 C        -2.447121         0.184397         1.488644
 C        -3.398529        -0.581740         0.580045
 C        -2.069013        -1.150121         0.846950
 C        -0.884261        -1.276855        -0.032428
 C        -0.183434         0.054125        -0.360897
 O         0.944723         0.104633        -0.875864
 O        -0.867059         1.247255        -0.114841
 C        -1.561284         1.347218         1.160209
 H        -4.090005         0.151371         2.867775
 H        -2.796240        -0.852229         3.351591
 H        -2.740742         0.847136         3.747977
 H        -4.103389        -1.062289         1.293822
 H        -3.831298        -0.308720        -0.418800
 H        -2.265207        -2.058795         1.409331
 H        -0.132190        -1.881745         0.401178
 H        -1.154309        -1.815563        -0.999812
 H        -0.900496         1.452275         2.014044
 H        -2.119388         2.321151         1.155431
