19
Iteration:  2659charge 0 multiplicity 1
 C        -3.209888         0.220611         2.854947
 C        -2.455328         0.133504         1.506761
 C        -3.064848        -0.746247         0.397976
 C        -1.793008        -1.198565         1.168934
 C        -0.560834        -1.261160         0.352635
 C        -0.284543         0.058004        -0.453940
 O         0.554651         0.202359        -1.298406
 O        -0.955370         1.253267        -0.004447
 C        -1.619823         1.350940         1.215208
 H        -3.938931         1.032580         2.990980
 H        -3.901021        -0.636422         3.029837
 H        -2.486941         0.166456         3.730436
 H        -4.003876        -1.318565         0.461321
 H        -3.077752        -0.303113        -0.674336
 H        -1.888140        -2.063359         1.802357
 H         0.349136        -1.304780         0.973579
 H        -0.516641        -2.107489        -0.368979
 H        -0.908814         1.306619         2.094007
 H        -2.119241         2.296684         1.179546
