19
Iteration:  1819
 C        -3.276993         0.275485         2.775875
 C        -2.332778         0.086958         1.664220
 C        -2.896800        -0.623119         0.379485
 C        -1.811900        -1.233135         1.181920
 C        -0.516981        -1.233852         0.379602
 C        -0.301223         0.011563        -0.413526
 O         0.480108         0.182156        -1.358679
 O        -1.032522         1.232799        -0.069889
 C        -1.628711         1.257255         1.321648
 H        -4.075734         0.863625         2.320392
 H        -3.803010        -0.696620         3.006321
 H        -2.879850         0.767397         3.727705
 H        -4.045692        -0.773024         0.497281
 H        -2.795525        -0.410262        -0.661606
 H        -1.896718        -2.253512         1.511797
 H         0.360894        -1.350631         0.993872
 H        -0.414025        -1.962217        -0.398095
 H        -0.854256         1.579685         2.058588
 H        -2.336315         2.139611         1.218282
