19
Iteration:   286charge 0 multiplicity 1
 C        -2.893894         0.233726         2.921333
 C        -2.551981         0.144582         1.433175
 C        -3.403558        -0.718727         0.589322
 C        -2.045507        -1.264336         0.989725
 C        -0.977140        -1.176165        -0.113638
 C        -0.149840         0.133573        -0.341693
 O         0.939564         0.095544        -0.812954
 O        -0.821733         1.304790        -0.135917
 C        -1.568900         1.248518         1.146869
 H        -3.579065         0.991508         3.252028
 H        -3.425799        -0.746392         3.217253
 H        -2.022562         0.287853         3.654065
 H        -4.366500        -0.836705         1.007615
 H        -3.460379        -0.572621        -0.499548
 H        -2.031552        -2.024386         1.842154
 H        -0.139045        -1.945072         0.000584
 H        -1.420947        -1.344834        -1.081978
 H        -0.944514         1.432127         2.050494
 H        -2.152978         2.179491         1.131306
