19
Iteration:  3214
 C        -3.180159         0.048253         2.909816
 C        -2.545440         0.116688         1.579294
 C        -3.271095        -0.639544         0.461720
 C        -1.955158        -1.152450         0.964627
 C        -0.543562        -1.100261         0.368762
 C        -0.169707         0.139428        -0.410015
 O         0.563668         0.070287        -1.386223
 O        -0.740761         1.329967         0.011372
 C        -1.577658         1.227858         1.239738
 H        -3.159368         1.086146         3.466355
 H        -4.291565        -0.131856         2.722736
 H        -2.783902        -0.781710         3.518312
 H        -4.150290        -1.226658         0.533594
 H        -3.118868        -0.188176        -0.574253
 H        -2.124601        -2.015220         1.628315
 H         0.041099        -1.245304         1.228141
 H        -0.315783        -1.921836        -0.370344
 H        -0.854165         1.194580         2.041609
 H        -2.251730         2.189923         1.316076
