19
Iteration:  1876charge 0 multiplicity 1
 C        -2.937966         0.084191         2.940075
 C        -2.619840         0.174558         1.495309
 C        -3.321775        -0.748618         0.374271
 C        -1.991963        -1.206743         1.032521
 C        -0.531601        -1.039141         0.479500
 C        -0.173227         0.056265        -0.415153
 O         0.637862         0.149100        -1.350535
 O        -0.827558         1.172274         0.012759
 C        -1.726041         1.376803         1.117108
 H        -3.453049         1.035242         3.265901
 H        -3.629630        -0.770001         3.124938
 H        -2.045042         0.015144         3.619992
 H        -3.988688        -1.530420         0.626525
 H        -3.269724        -0.421593        -0.699432
 H        -2.066424        -2.041114         1.790282
 H         0.044483        -0.734519         1.411918
 H        -0.054227        -1.923230         0.124708
 H        -1.305373         1.723566         2.084771
 H        -2.330845         2.175603         0.648591
