19
Iteration:  3150charge 0 multiplicity 1
 C        -3.054258         0.217379         2.954706
 C        -2.456645         0.072346         1.558581
 C        -3.028488        -0.669527         0.260555
 C        -1.867878        -1.252459         1.029612
 C        -0.636628        -1.298991         0.201155
 C        -0.224818         0.050824        -0.278795
 O         0.515424         0.192536        -1.191974
 O        -0.891356         1.262497         0.029683
 C        -1.759112         1.391641         1.207657
 H        -2.350273        -0.205211         3.653114
 H        -3.033680         1.301465         3.254848
 H        -4.084116        -0.104641         3.081610
 H        -3.946848        -1.156690         0.464476
 H        -2.806842        -0.285857        -0.751092
 H        -2.034863        -2.236031         1.534597
 H         0.273596        -1.750846         0.666920
 H        -0.755145        -1.977569        -0.664877
 H        -1.154977         1.806231         2.036368
 H        -2.521181         2.233809         1.011023
