19
Iteration:  1023
 C        -2.554846         0.385312         2.960871
 C        -2.451030        -0.009846         1.521985
 C        -3.449326        -0.917222         0.811437
 C        -2.014663        -1.316933         0.938959
 C        -1.015357        -1.118930        -0.206637
 C        -0.085114         0.170670        -0.328306
 O         1.066403         0.205758        -0.712235
 O        -0.793570         1.332080         0.163462
 C        -2.117453         1.201134         0.596252
 H        -3.044025         1.410886         3.029465
 H        -3.153594        -0.249147         3.693507
 H        -1.492623         0.429757         3.432334
 H        -4.289688        -1.336181         1.363729
 H        -3.779969        -0.530149        -0.136434
 H        -1.952192        -2.168811         1.629452
 H        -0.293721        -1.850264        -0.377584
 H        -1.619434        -1.068503        -1.076751
 H        -2.576034         2.095796         0.898950
 H        -2.646967         0.971407        -0.294952
