19
Iteration:  4574
 C        -3.176172         0.341727         2.938936
 C        -2.453415         0.042404         1.518240
 C        -3.182288        -0.366452         0.361585
 C        -2.060914        -1.313277         0.825465
 C        -0.615955        -1.273717         0.236213
 C        -0.161107         0.030890        -0.339589
 O         0.472142         0.248388        -1.430352
 O        -0.765244         1.150334         0.204030
 C        -1.494625         1.103662         1.397341
 H        -3.971545         1.041988         2.750404
 H        -3.436962        -0.490922         3.533398
 H        -2.403178         0.840639         3.466543
 H        -4.099115        -0.922700         0.516760
 H        -2.932464         0.126030        -0.638032
 H        -2.293116        -2.236705         1.462633
 H         0.128045        -1.713818         0.993634
 H        -0.642147        -2.057788        -0.562842
 H        -0.810233         1.164461         2.312648
 H        -1.878394         2.123572         1.411985
