19
Iteration:  3157charge 0 multiplicity 1
 C        -3.059659         0.197891         2.914376
 C        -2.417226         0.067727         1.514570
 C        -3.074275        -0.613028         0.256256
 C        -1.849324        -1.247473         1.128237
 C        -0.666149        -1.238436         0.248322
 C        -0.235639         0.066143        -0.301949
 O         0.530649         0.199916        -1.227777
 O        -0.828993         1.215106         0.044242
 C        -1.797274         1.341281         1.195477
 H        -2.252273        -0.256025         3.676102
 H        -3.312267         1.229478         3.216157
 H        -3.926438        -0.443818         3.209105
 H        -4.110862        -1.065698         0.566483
 H        -2.970224        -0.201170        -0.712858
 H        -2.060164        -2.224162         1.476174
 H         0.146625        -1.610726         0.823419
 H        -0.681748        -1.825241        -0.715692
 H        -1.059998         1.753798         1.880555
 H        -2.563950         2.153918         0.944793
