19
Iteration:  1523
 C        -2.944988         0.272722         2.900916
 C        -2.453607         0.024017         1.484547
 C        -3.182452        -0.627089         0.339578
 C        -1.913114        -1.222384         0.954463
 C        -0.471053        -1.182766         0.535863
 C        -0.222035         0.070694        -0.340232
 O         0.537793         0.094731        -1.239981
 O        -0.962459         1.220644        -0.049226
 C        -1.788900         1.306384         1.110756
 H        -3.169637         1.353160         3.009684
 H        -3.888560        -0.294873         2.954882
 H        -2.175312        -0.013009         3.686702
 H        -4.048469        -1.221732         0.614338
 H        -3.243926         0.080151        -0.450473
 H        -2.166620        -2.186499         1.450276
 H         0.287263        -1.025860         1.322249
 H        -0.172532        -2.082037        -0.077527
 H        -1.165833         1.518400         2.101327
 H        -2.512908         2.160353         1.065500
