19
Iteration:  2718charge 0 multiplicity 1
 C        -2.976841         0.150296         3.082120
 C        -2.482276         0.047737         1.551104
 C        -3.253102        -0.595568         0.420373
 C        -1.954259        -1.261132         0.848362
 C        -0.539533        -1.155746         0.372334
 C        -0.164516         0.060029        -0.411405
 O         0.723979         0.217381        -1.196491
 O        -0.931672         1.113250        -0.096735
 C        -1.846338         1.387191         1.116092
 H        -3.785177         0.942857         3.035409
 H        -3.397609        -0.767555         3.504479
 H        -2.202136         0.539914         3.833164
 H        -4.129430        -1.148773         0.837193
 H        -3.234772        -0.044012        -0.497964
 H        -2.152074        -2.253472         1.318150
 H         0.098045        -1.068963         1.363026
 H        -0.127661        -2.046357        -0.104765
 H        -1.296785         1.911078         1.888515
 H        -2.604643         2.085699         0.645892
