19
Iteration:  2514
 C        -3.383431         0.167947         2.889487
 C        -2.465307         0.089993         1.623978
 C        -2.923276        -0.507322         0.268860
 C        -1.789376        -1.175915         1.070083
 C        -0.243381        -1.123882         0.577021
 C        -0.304718        -0.013676        -0.421272
 O         0.186744         0.108668        -1.519158
 O        -0.813910         1.167241         0.027606
 C        -1.566148         1.277454         1.264913
 H        -4.180032         0.941557         2.769428
 H        -4.137537        -0.641746         2.901560
 H        -3.109421         0.224353         3.939350
 H        -3.879627        -1.030189         0.164553
 H        -2.732174         0.023051        -0.566985
 H        -2.115235        -2.194628         1.448874
 H         0.364050        -0.848828         1.444695
 H         0.156962        -2.059948         0.135528
 H        -0.829460         1.391030         2.096882
 H        -2.160657         2.239759         1.132899
