19
Iteration:   941charge 0 multiplicity 1
 C        -2.187142         0.482934         2.863274
 C        -2.419436         0.042358         1.371917
 C        -3.358775        -1.142872         0.935023
 C        -1.863616        -1.237397         0.802269
 C        -1.274955        -0.928165        -0.524192
 C        -0.278650         0.125364        -0.219530
 O         0.979900        -0.032187        -0.114604
 O        -0.817037         1.388130         0.130680
 C        -2.270014         1.286131         0.430624
 H        -2.954414         1.144294         3.276236
 H        -2.226332        -0.454549         3.393789
 H        -1.236273         0.974201         3.050135
 H        -3.836598        -1.765636         1.640387
 H        -3.848901        -1.153738        -0.074052
 H        -1.414595        -1.954759         1.407287
 H        -0.531124        -1.661055        -1.028408
 H        -2.023127        -0.610570        -1.327133
 H        -2.606838         2.272186         0.947138
 H        -2.843913         1.011322        -0.520915
