19
Iteration:  1387charge 0 multiplicity 1
 C        -3.145698         0.240320         2.894850
 C        -2.564915         0.148944         1.480818
 C        -3.174475        -0.720678         0.366010
 C        -1.817732        -1.220400         1.117072
 C        -0.426844        -1.267317         0.454817
 C        -0.137332         0.064346        -0.333130
 O         0.246419         0.149999        -1.475811
 O        -0.534836         1.188866         0.240235
 C        -1.828882         1.390519         1.012317
 H        -4.027258         0.921625         2.980460
 H        -3.575162        -0.712074         3.210259
 H        -2.443532         0.656078         3.592952
 H        -4.215228        -1.157984         0.507353
 H        -3.071676        -0.178101        -0.586804
 H        -1.985875        -2.083115         1.753135
 H         0.442049        -1.455061         1.174973
 H        -0.378947        -2.147541        -0.181831
 H        -1.474499         2.012675         1.928170
 H        -2.262446         2.128327         0.365201
