19
Iteration:  2824charge 0 multiplicity 1
 C        -3.158745         0.315799         2.944711
 C        -2.430156        -0.001362         1.596148
 C        -3.120733        -0.768840         0.386819
 C        -1.847074        -1.194744         1.059685
 C        -0.551678        -1.201482         0.274430
 C        -0.158592         0.089761        -0.368800
 O         0.624630         0.302058        -1.298034
 O        -0.939541         1.127021        -0.006884
 C        -1.779082         1.293726         1.193561
 H        -4.006733         0.949461         2.693515
 H        -3.552000        -0.554368         3.512605
 H        -2.375457         0.891924         3.531072
 H        -4.063167        -1.325179         0.622437
 H        -3.159539        -0.332650        -0.650874
 H        -1.953607        -2.109014         1.657341
 H         0.151495        -1.636047         0.905612
 H        -0.709617        -1.856577        -0.586856
 H        -1.093480         1.626991         2.055244
 H        -2.403565         2.124184         0.986732
