19
Iteration:  3650
 C        -3.146439         0.201899         2.923738
 C        -2.445672         0.106516         1.600357
 C        -3.221375        -0.268947         0.284300
 C        -2.117116        -1.147679         0.736314
 C        -0.689640        -1.258761         0.280049
 C        -0.171038         0.015939        -0.352083
 O         0.362338         0.095304        -1.469391
 O        -0.539307         1.095124         0.265965
 C        -1.429918         1.176148         1.446357
 H        -3.522131        -0.810492         3.290081
 H        -2.494634         0.543158         3.736576
 H        -3.993109         0.923012         2.922941
 H        -4.265188        -0.574056         0.127775
 H        -2.974928         0.254163        -0.642478
 H        -2.530126        -2.048856         1.277606
 H        -0.111649        -1.432719         1.160720
 H        -0.562880        -2.152046        -0.342614
 H        -0.758307         1.321301         2.334676
 H        -2.055345         2.060872         1.246740
