19
Iteration:  1249charge 0 multiplicity 1
 C        -3.173831         0.123671         2.918423
 C        -2.490051         0.225734         1.545049
 C        -3.126286        -0.568772         0.332095
 C        -1.925250        -1.122132         1.004182
 C        -0.453152        -1.174808         0.505614
 C        -0.242661         0.057142        -0.352424
 O         0.555928         0.070230        -1.289238
 O        -1.050594         1.152404        -0.183384
 C        -1.516057         1.337145         1.243464
 H        -4.225774         0.430646         3.035268
 H        -3.207052        -0.954794         3.064073
 H        -2.582748         0.605706         3.716379
 H        -4.059317        -1.031807         0.700718
 H        -3.180746        -0.270245        -0.750349
 H        -1.998349        -1.937503         1.716972
 H         0.324825        -1.187205         1.377015
 H        -0.411639        -2.177918        -0.087206
 H        -0.723824         1.049330         1.898924
 H        -1.663036         2.416990         1.408093
