19
Iteration:   375charge 0 multiplicity 1
 C        -2.844512         0.056037         3.010142
 C        -2.586306         0.188424         1.432486
 C        -3.396102        -0.703210         0.475418
 C        -2.084516        -1.209107         0.960654
 C        -0.767664        -1.131929         0.168250
 C        -0.157837         0.138921        -0.354911
 O         0.876794        -0.013889        -1.052310
 O        -0.752648         1.300377        -0.005399
 C        -1.822155         1.451995         1.066792
 H        -1.939783        -0.396267         3.221227
 H        -2.983414         1.036404         3.590674
 H        -3.713298        -0.694973         3.148259
 H        -4.245132        -1.273722         0.872459
 H        -3.387699        -0.311101        -0.520185
 H        -2.003569        -2.107371         1.655228
 H         0.014586        -1.686965         0.705032
 H        -0.878194        -1.770506        -0.689313
 H        -1.282429         1.841904         1.950625
 H        -2.411104         2.327130         0.773942
