19
Iteration:  2278
 C        -3.145372         0.077670         2.858645
 C        -2.465533         0.098019         1.476242
 C        -3.153848        -0.709755         0.433752
 C        -1.828464        -1.169371         1.229844
 C        -0.629260        -1.120398         0.370638
 C        -0.273485         0.122980        -0.429590
 O         0.626207         0.192608        -1.225197
 O        -0.967999         1.263597        -0.192090
 C        -1.589462         1.269677         1.217941
 H        -3.473560         1.087599         3.062233
 H        -4.102486        -0.472476         2.810710
 H        -2.486758        -0.339667         3.693777
 H        -4.085723        -1.145515         0.711502
 H        -2.855394        -0.706287        -0.643907
 H        -1.785664        -1.850133         2.104977
 H         0.198102        -1.314244         0.948295
 H        -0.761263        -1.948528        -0.259222
 H        -0.905832         1.388238         2.004001
 H        -2.011325         2.220603         1.233042
