19
Iteration:   631
 C        -3.321678         0.332470         2.889112
 C        -2.457363        -0.042466         1.645183
 C        -3.019112        -0.595834         0.396947
 C        -1.850573        -1.329111         1.127849
 C        -0.455235        -1.122698         0.408913
 C        -0.231362         0.098073        -0.479294
 O         0.521504         0.242589        -1.356492
 O        -1.011772         1.163947        -0.110117
 C        -1.535215         1.164284         1.239054
 H        -3.428332         1.479786         3.104120
 H        -4.405368         0.184573         2.651596
 H        -3.025540        -0.127300         3.838864
 H        -4.097654        -1.019187         0.318663
 H        -2.630924        -0.044097        -0.466677
 H        -2.105275        -2.322625         1.727157
 H         0.296333        -0.971595         1.147153
 H        -0.128115        -2.145078         0.011292
 H        -0.770742         1.317129         2.012597
 H        -2.178072         2.120247         1.265978
