19
Iteration:  4473
 C        -3.150866         0.227320         2.897411
 C        -2.462359         0.005025         1.513364
 C        -3.021277        -0.381890         0.181290
 C        -2.031497        -1.237932         0.856836
 C        -0.522538        -1.210912         0.423411
 C        -0.250951         0.116802        -0.335555
 O         0.208427         0.052250        -1.454831
 O        -0.708456         1.253978         0.262116
 C        -1.462629         1.153698         1.436067
 H        -3.041123         1.314899         2.992093
 H        -4.179783        -0.010002         2.695886
 H        -2.640824        -0.431047         3.537660
 H        -4.078337        -0.680617        -0.043209
 H        -2.639403        -0.003254        -0.761866
 H        -2.290802        -2.173996         1.301807
 H         0.023145        -1.488997         1.396757
 H        -0.295928        -1.907506        -0.411264
 H        -0.811243         1.347214         2.319926
 H        -1.988156         2.102740         1.273200
