19
Iteration:  2636charge 0 multiplicity 1
 C        -3.396792         0.360159         2.832160
 C        -2.304113        -0.028774         1.704146
 C        -3.030046        -0.616245         0.432884
 C        -1.803400        -1.307772         1.109275
 C        -0.457625        -1.203908         0.348921
 C        -0.149574         0.143447        -0.368325
 O         0.438007         0.219535        -1.450201
 O        -0.931211         1.152239         0.004260
 C        -1.640870         1.212808         1.257104
 H        -3.866674         1.352242         2.717384
 H        -4.330491        -0.212276         2.974104
 H        -2.954431         0.361684         3.877632
 H        -4.027940        -0.923485         0.367479
 H        -2.789220        -0.195051        -0.614424
 H        -1.933350        -2.247453         1.654953
 H         0.414921        -1.459794         0.901539
 H        -0.471337        -1.866772        -0.561538
 H        -1.025184         1.781465         2.009180
 H        -2.493411         1.777752         0.902941
