19
Iteration:   430
 C        -3.282988         0.269957         2.923519
 C        -2.394721         0.007663         1.656924
 C        -3.129458        -0.528775         0.403870
 C        -1.914744        -1.229146         1.023858
 C        -0.608747        -1.302432         0.244738
 C        -0.170647         0.056188        -0.422268
 O         0.663373         0.204831        -1.350355
 O        -0.879229         1.203904        -0.001318
 C        -1.658479         1.253548         1.269102
 H        -3.748661        -0.467710         3.509134
 H        -2.543567         0.657806         3.724981
 H        -4.036937         1.079147         2.641097
 H        -4.170768        -0.931044         0.480370
 H        -2.999892        -0.070840        -0.551591
 H        -2.074698        -2.141457         1.600085
 H         0.147466        -1.388582         1.035106
 H        -0.548250        -2.139490        -0.426562
 H        -0.973655         1.550920         2.106439
 H        -2.433888         2.022674         1.192769
