19
Iteration:  3094charge 0 multiplicity 1
 C        -3.390242        -0.179574        -2.703931
 C        -2.407113        -0.030814        -1.531176
 C        -2.826626        -0.961593        -0.386499
 C        -1.638453        -1.161212        -1.094107
 O        -0.287508        -1.088652        -0.647793
 C        -0.042549         0.059592         0.130668
 O         0.703119        -0.056663         1.045705
 C        -0.682501         1.394298        -0.330231
 C        -1.837563         1.381999        -1.336656
 H        -3.531388        -1.255591        -2.911921
 H        -4.298356         0.325860        -2.352349
 H        -3.405762         0.542574        -3.670243
 H        -2.826600        -0.581774         0.651489
 H        -3.564306        -1.816485        -0.541397
 H        -1.605145        -2.029461        -1.837867
 H        -0.954313         1.801230         0.730096
 H         0.013244         2.100453        -0.686891
 H        -2.488089         2.165108        -1.239403
 H        -1.310261         1.622245        -2.328840
