19
Iteration:  4249charge 0 multiplicity 1
 C        -3.295212        -0.055912        -2.833264
 C        -2.546657        -0.041987        -1.553740
 C        -2.902148        -1.011176        -0.363611
 C        -1.639795        -1.191024        -1.119193
 O        -0.415845        -1.017987        -0.515881
 C        -0.010286         0.105007         0.184620
 O         0.973716        -0.153632         0.875746
 C        -0.653126         1.370412        -0.260297
 C        -1.955189         1.298218        -1.242925
 H        -3.809349        -1.023431        -2.980983
 H        -4.031935         0.819912        -2.802136
 H        -2.602135         0.204505        -3.721730
 H        -2.914288        -0.559183         0.639209
 H        -3.818558        -1.570064        -0.643485
 H        -1.685042        -1.992741        -1.808681
 H        -1.045738         1.819237         0.610391
 H         0.161352         2.083330        -0.621360
 H        -2.635885         2.006253        -0.765839
 H        -1.734052         1.851330        -2.245740
