19
Iteration:  1904
 C        -2.695859         0.277282        -2.882391
 C        -2.449195        -0.141099        -1.436269
 C        -3.243362        -1.176213        -0.646165
 C        -1.729388        -1.318523        -0.947080
 O        -0.634340        -1.113396        -0.042308
 C         0.025189         0.140579        -0.038097
 O         1.052292         0.301452         0.620026
 C        -0.658282         1.248994        -0.830491
 C        -2.165063         1.075099        -0.624787
 H        -2.146027        -0.468731        -3.540721
 H        -3.773607         0.349733        -3.132962
 H        -2.176130         1.193636        -3.000399
 H        -3.503409        -0.888845         0.432098
 H        -3.840716        -2.103166        -0.937588
 H        -1.543263        -2.000324        -1.763468
 H        -0.166878         2.251922        -0.773329
 H        -0.339543         1.130954        -1.998220
 H        -2.501367         1.088811         0.452300
 H        -2.933883         1.754112        -0.951862
