19
Iteration:  4484charge 0 multiplicity 1
 C        -2.952432        -0.019555        -3.046421
 C        -2.421616        -0.030602        -1.492650
 C        -3.127401        -0.883695        -0.417946
 C        -1.784323        -1.278641        -1.018746
 O        -0.662300        -1.222946        -0.055028
 C        -0.001401        -0.010292         0.104569
 O         1.210139         0.174025         0.170832
 C        -0.886312         1.195341         0.117890
 C        -1.856846         1.348233        -1.137355
 H        -2.885416        -1.003097        -3.604649
 H        -3.983354         0.409302        -3.130348
 H        -2.361413         0.731914        -3.644426
 H        -3.082428        -0.248133         0.438663
 H        -4.004039        -1.462708        -0.743688
 H        -1.608261        -1.994667        -1.777422
 H        -1.499498         1.159243         0.964605
 H        -0.224712         1.973683         0.311112
 H        -2.641604         2.054807        -0.804917
 H        -1.332989         1.891329        -2.023230
