19
Iteration:  2592charge 0 multiplicity 1
 C        -3.596854        -0.207800        -2.612562
 C        -2.461637         0.019785        -1.557209
 C        -2.619427        -0.923313        -0.281490
 C        -1.531624        -1.179611        -1.255353
 O        -0.210636        -0.925804        -0.758105
 C        -0.075819        -0.002717         0.164945
 O         0.520059        -0.129041         1.216632
 C        -0.705361         1.384815        -0.333124
 C        -1.768385         1.311829        -1.447786
 H        -3.890343        -1.258369        -2.652099
 H        -4.327301         0.545928        -2.593302
 H        -3.138436         0.008995        -3.643984
 H        -2.238501        -0.502596         0.662084
 H        -3.510000        -1.594216        -0.086686
 H        -1.329628        -2.097719        -1.863197
 H        -1.003018         1.811343         0.527336
 H         0.143024         2.022273        -0.685474
 H        -2.488290         2.260465        -1.419961
 H        -1.288676         1.430127        -2.552392
