19
Iteration:  3965charge 0 multiplicity 1
 C        -3.067812         0.064626        -2.973756
 C        -2.516120        -0.053571        -1.486802
 C        -3.079997        -1.111562        -0.468046
 C        -1.736942        -1.205328        -1.100137
 O        -0.504221        -1.101668        -0.255416
 C         0.037224         0.073443         0.055241
 O         1.010616        -0.038057         0.798513
 C        -0.574846         1.379007        -0.595976
 C        -2.063843         1.313456        -0.837573
 H        -3.019645        -0.756615        -3.624300
 H        -4.097344         0.193175        -2.726730
 H        -2.586516         0.833610        -3.537336
 H        -3.095481        -0.827952         0.546010
 H        -3.738310        -1.897684        -0.672398
 H        -1.664603        -2.084460        -1.774360
 H        -0.418953         2.381132        -0.056343
 H         0.155784         1.634405        -1.570550
 H        -2.559290         1.607167         0.219130
 H        -2.275086         2.210599        -1.446654
