19
Iteration:  1010charge 0 multiplicity 1
 C        -2.802851        -0.090663        -3.020079
 C        -2.482041        -0.026339        -1.532545
 C        -3.152234        -1.094397        -0.608640
 C        -1.703023        -1.236997        -0.988245
 O        -0.626261        -1.135631         0.068551
 C         0.070370         0.108098         0.013204
 O         1.263203         0.075522         0.247162
 C        -0.796222         1.358724        -0.121468
 C        -2.228531         1.373028        -0.906109
 H        -3.280464        -1.097429        -3.428164
 H        -3.636848         0.623843        -3.254312
 H        -2.060619         0.359445        -3.650933
 H        -3.388920        -0.819031         0.430745
 H        -3.910299        -1.854198        -1.083137
 H        -1.589016        -2.073973        -1.573431
 H        -0.957113         1.514137         0.995463
 H        -0.253911         2.202478        -0.306032
 H        -2.956024         1.849557        -0.204242
 H        -2.239841         2.142412        -1.857734
