19
Iteration:   995
 C        -2.754156        -0.050697        -3.037003
 C        -2.512347        -0.051098        -1.502002
 C        -3.145521        -1.019830        -0.566467
 C        -1.686627        -1.198691        -0.891581
 O        -0.621175        -1.105632         0.003348
 C         0.020055         0.048446        -0.047958
 O         1.203403         0.070530         0.222978
 C        -0.886345         1.327931        -0.140719
 C        -2.172568         1.298097        -0.901983
 H        -2.764358        -1.062794        -3.330997
 H        -3.667327         0.437922        -3.313957
 H        -1.827659         0.387617        -3.394892
 H        -3.334373        -0.548604         0.378075
 H        -3.789264        -1.737220        -0.840849
 H        -1.262284        -1.907628        -1.714573
 H        -1.091769         1.492146         0.935251
 H        -0.050158         2.256693        -0.403750
 H        -2.928281         1.428257        -0.171933
 H        -2.176962         2.148299        -1.562902
