19
Iteration:   616
 C        -3.056277        -0.060686        -2.914359
 C        -2.471527        -0.038250        -1.528986
 C        -3.056709        -0.965399        -0.491716
 C        -1.646573        -1.194371        -1.045981
 O        -0.565680        -1.108274        -0.148731
 C         0.045094         0.032326         0.029707
 O         1.154281        -0.011178         0.488016
 C        -0.841751         1.336777        -0.101083
 C        -2.056389         1.319486        -1.110986
 H        -3.632238        -1.046600        -3.047031
 H        -3.726054         0.738203        -3.255924
 H        -2.151195         0.093850        -3.587826
 H        -3.089326        -0.497632         0.445098
 H        -3.889741        -1.507346        -0.738541
 H        -1.461262        -1.980299        -1.880365
 H        -0.957163         1.634392         0.909146
 H        -0.015571         2.025478        -0.479876
 H        -2.948200         1.985625        -0.704281
 H        -1.758901         1.885587        -1.972035
