19
Iteration:  3601charge 0 multiplicity 1
 C        -3.069337        -0.021695        -2.828668
 C        -2.402640        -0.061999        -1.497570
 C        -3.119825        -1.070008        -0.526468
 C        -1.739416        -1.319986        -1.080754
 O        -0.575600        -1.156468        -0.246517
 C        -0.000149         0.032919         0.015125
 O         1.068863         0.067087         0.561805
 C        -0.708301         1.382745        -0.179514
 C        -1.882071         1.423059        -1.077438
 H        -3.664695        -1.001793        -2.939699
 H        -3.898684         0.796293        -2.850179
 H        -2.403575         0.195394        -3.747199
 H        -3.204729        -0.806915         0.506352
 H        -4.059477        -1.475664        -0.949362
 H        -1.391980        -2.096107        -1.806412
 H        -1.114463         1.534171         0.776817
 H         0.076266         2.252119        -0.200725
 H        -2.765064         2.131769        -0.649682
 H        -1.624996         2.097423        -1.929045
