19
Iteration:   260charge 0 multiplicity 1
 C        -3.432620        -0.066189        -2.735361
 C        -2.421509        -0.020579        -1.584547
 C        -2.819353        -0.799612        -0.375128
 C        -1.606048        -1.233923        -1.160884
 O        -0.329900        -1.100808        -0.490240
 C        -0.135614         0.008706         0.177992
 O         0.929703         0.071897         0.726151
 C        -0.962580         1.216913        -0.010410
 C        -1.684474         1.269066        -1.407574
 H        -4.091525        -0.900261        -2.738111
 H        -3.929762         0.998777        -2.705632
 H        -2.882780        -0.133650        -3.724152
 H        -2.545876        -0.716634         0.592571
 H        -3.585272        -1.489377        -0.414268
 H        -1.671262        -2.124660        -1.753567
 H        -1.786405         1.413999         0.792267
 H        -0.189817         2.053096         0.084454
 H        -2.450896         2.068266        -1.332401
 H        -0.935247         1.385899        -2.276129
