19
Iteration:  4295charge 0 multiplicity 1
 C        -3.386305        -0.036822        -2.672707
 C        -2.372010        -0.007665        -1.516146
 C        -2.883481        -0.837744        -0.351921
 C        -1.617264        -1.259438        -1.181768
 O        -0.302141        -1.181919        -0.600727
 C        -0.021508        -0.053996         0.018430
 O         0.718229        -0.026296         0.986708
 C        -0.693524         1.338296        -0.299549
 C        -1.827244         1.432985        -1.288260
 H        -3.281885        -1.126472        -3.052044
 H        -4.479994         0.206866        -2.358396
 H        -3.114005         0.647124        -3.519611
 H        -2.617006        -0.611784         0.674997
 H        -3.679162        -1.564416        -0.522085
 H        -1.694830        -2.178764        -1.789969
 H        -1.018529         1.565629         0.692745
 H         0.056616         2.202838        -0.488975
 H        -2.686029         1.892293        -0.871748
 H        -1.746286         1.970370        -2.286368
