19
Iteration:  1870charge 0 multiplicity 1
 C        -2.775124         0.109161        -2.903736
 C        -2.524884        -0.065853        -1.461019
 C        -3.120110        -1.280729        -0.691582
 C        -1.700825        -1.166704        -0.970954
 O        -0.744158        -1.037070         0.052765
 C         0.027857         0.073991        -0.056644
 O         1.106629         0.184260         0.510302
 C        -0.648442         1.343742        -0.670682
 C        -2.182329         1.188606        -0.644011
 H        -2.395698        -0.858256        -3.370564
 H        -3.796724         0.308483        -3.226846
 H        -2.100062         0.860609        -3.238767
 H        -3.405165        -1.151226         0.387286
 H        -3.554683        -2.112367        -1.247492
 H        -1.188984        -1.716662        -1.806848
 H        -0.267524         2.132639        -0.002436
 H        -0.148768         1.255291        -1.782573
 H        -2.447420         1.131334         0.457443
 H        -2.645023         1.961856        -1.230076
