19
Iteration:  2083charge 0 multiplicity 1
 C        -3.268433        -0.270159        -2.819225
 C        -2.453202        -0.021889        -1.551719
 C        -2.836260        -0.911515        -0.288830
 C        -1.641218        -1.196230        -1.148841
 O        -0.301631        -1.022649        -0.697141
 C        -0.047697         0.066860         0.124701
 O         0.732591        -0.093654         1.017012
 C        -0.665639         1.419537        -0.348809
 C        -1.980336         1.407466        -1.135234
 H        -3.330391        -1.281246        -3.097124
 H        -4.300838         0.095223        -2.649185
 H        -2.933689         0.165310        -3.698492
 H        -2.594165        -0.569168         0.723248
 H        -3.718627        -1.512634        -0.461805
 H        -1.508066        -2.149275        -1.763127
 H        -0.841327         2.022463         0.576849
 H         0.317514         1.867987        -0.917268
 H        -2.729805         1.925532        -0.616811
 H        -1.768060         1.952250        -2.045493
