19
Iteration:   722charge 0 multiplicity 1
 C        -3.254828         0.017966        -2.777522
 C        -2.523251        -0.029693        -1.492185
 C        -2.979876        -1.158724        -0.572718
 C        -1.701469        -1.166697        -1.223780
 O        -0.547337        -1.151584        -0.290907
 C         0.050106         0.096547         0.072673
 O         0.860922         0.188788         0.984173
 C        -0.401875         1.279235        -0.669082
 C        -1.946557         1.241850        -0.911037
 H        -3.564873        -1.010204        -3.200431
 H        -4.088865         0.747600        -2.549085
 H        -2.619359         0.310218        -3.675415
 H        -2.962052        -1.042919         0.530579
 H        -3.858609        -1.683262        -0.922832
 H        -1.331182        -1.739987        -2.049502
 H        -0.221360         2.190136        -0.076144
 H         0.180208         1.333536        -1.630120
 H        -2.335116         1.367708         0.053752
 H        -2.352189         2.152047        -1.522766
