19
Iteration:  2110charge 0 multiplicity 1
 C        -3.411607        -0.129197        -2.735097
 C        -2.521559        -0.062880        -1.589727
 C        -2.814904        -0.915112        -0.388194
 C        -1.583210        -1.194901        -1.217226
 O        -0.256682        -1.037138        -0.635748
 C        -0.001825         0.067437         0.132353
 O         0.761328        -0.019786         1.081974
 C        -0.696850         1.370263        -0.259919
 C        -1.913570         1.279316        -1.271177
 H        -3.875346        -1.171528        -2.890822
 H        -4.298576         0.436553        -2.471428
 H        -3.115344         0.045925        -3.829041
 H        -2.496147        -0.575885         0.609704
 H        -3.569445        -1.715341        -0.495568
 H        -1.431072        -2.084123        -1.727215
 H        -1.002912         1.979621         0.588860
 H         0.118435         1.857238        -0.601505
 H        -2.732826         2.033720        -0.910423
 H        -1.569235         1.710799        -2.308624
