19
Iteration:  4512
 C        -2.851354        -0.088256        -2.917851
 C        -2.343619        -0.017056        -1.496028
 C        -3.210707        -0.823997        -0.539574
 C        -1.854829        -1.214314        -0.860011
 O        -0.554401        -1.155573        -0.145111
 C         0.025306         0.047382         0.006833
 O         1.249657         0.079787         0.027616
 C        -1.137007         1.199693         0.245685
 C        -1.816827         1.302050        -1.073437
 H        -3.081403        -1.072468        -3.300533
 H        -3.689231         0.583389        -3.031156
 H        -2.069233         0.288717        -3.558671
 H        -3.509215        -0.046520         0.138212
 H        -3.900848        -1.430140        -1.120963
 H        -1.785976        -2.157311        -1.479743
 H        -1.838393         0.916141         1.166287
 H        -0.612804         2.211151         0.585059
 H        -2.563624         2.102617        -1.051209
 H        -1.021824         1.533127        -1.712146
