19
Iteration:  1204
 C        -3.386711        -0.050014        -2.801801
 C        -2.516089        -0.046801        -1.547005
 C        -2.827025        -1.075554        -0.428026
 C        -1.542591        -1.217447        -1.276487
 O        -0.384085        -1.195426        -0.357116
 C         0.038497         0.034484         0.133416
 O         0.942431         0.061449         0.956256
 C        -0.773930         1.420004        -0.270089
 C        -1.948439         1.381964        -1.298505
 H        -4.150589        -0.927862        -2.994024
 H        -4.109687         0.776831        -2.714332
 H        -2.860911         0.135596        -3.734450
 H        -2.618847        -0.674540         0.659982
 H        -3.687037        -1.810464        -0.556533
 H        -1.459238        -2.010033        -1.954991
 H        -1.159493         1.899757         0.538410
 H        -0.068238         2.240568        -0.673805
 H        -2.785685         2.006921        -0.828882
 H        -1.773073         1.725445        -2.303932
