19
Iteration:   737
 C        -3.291443         0.106323        -2.818877
 C        -2.563916        -0.017500        -1.430696
 C        -3.061209        -1.229019        -0.592373
 C        -1.548472        -1.260307        -1.242063
 O        -0.510017        -1.115288        -0.250097
 C         0.050034         0.087008         0.086922
 O         0.806505         0.196079         1.042170
 C        -0.386873         1.290237        -0.847023
 C        -1.938634         1.283725        -0.817898
 H        -3.833149        -0.793648        -3.082959
 H        -4.134005         0.766826        -2.782463
 H        -2.618075         0.429957        -3.574150
 H        -3.012534        -1.133677         0.448138
 H        -3.715931        -1.959888        -1.018685
 H        -1.452778        -2.013582        -2.076421
 H         0.110126         2.143693        -0.382736
 H         0.096200         1.144404        -1.975062
 H        -2.295819         1.459688         0.231550
 H        -2.231453         2.127770        -1.344708
