19
Iteration:   866charge 0 multiplicity 1
 C        -3.040758         0.032877        -2.923767
 C        -2.538687        -0.029502        -1.433618
 C        -3.079639        -1.155038        -0.636513
 C        -1.609343        -1.231331        -1.080142
 O        -0.627675        -1.144943        -0.065725
 C         0.071771         0.098365         0.046670
 O         1.120451         0.105414         0.613451
 C        -0.645659         1.382345        -0.489927
 C        -2.147092         1.273623        -0.878132
 H        -3.282380        -1.047428        -3.395067
 H        -3.872628         0.795991        -3.054892
 H        -2.222938         0.455411        -3.544560
 H        -3.223009        -1.161071         0.423268
 H        -3.703178        -1.879214        -1.036393
 H        -1.352276        -1.892076        -1.971366
 H        -0.667128         2.024642         0.358458
 H         0.077198         1.782095        -1.084556
 H        -2.654786         1.460041         0.043381
 H        -2.336211         2.221867        -1.593745
