19
Iteration:  1921
 C        -2.736910         0.209358        -2.898469
 C        -2.561967        -0.094874        -1.483058
 C        -3.182084        -1.207164        -0.575583
 C        -1.689721        -1.270062        -0.972132
 O        -0.606857        -1.077279        -0.078844
 C         0.024087         0.098369        -0.088301
 O         0.949798         0.321442         0.671329
 C        -0.617511         1.202387        -0.845196
 C        -2.087990         1.079852        -0.608649
 H        -2.430406        -0.565025        -3.581166
 H        -3.849119         0.305476        -2.946889
 H        -2.128852         1.200596        -3.136558
 H        -3.603939        -0.896225         0.349284
 H        -3.797694        -1.859037        -1.163208
 H        -1.467652        -2.187690        -1.592830
 H        -0.203102         2.123262        -0.394504
 H        -0.219091         1.272040        -1.827815
 H        -2.284478         0.949049         0.466331
 H        -2.510805         2.126689        -0.833458
