19
Iteration:  4908
 C        -2.854461        -0.050422        -2.959077
 C        -2.498253         0.040604        -1.542017
 C        -3.152727        -0.813396        -0.482164
 C        -1.779700        -1.213947        -0.897720
 O        -0.593225        -1.197314        -0.070660
 C         0.024804         0.041633         0.113087
 O         1.209900         0.167475         0.064314
 C        -1.060573         1.126572         0.199247
 C        -1.817389         1.265564        -1.218194
 H        -3.434235        -0.924987        -3.225146
 H        -3.405767         0.893326        -3.199698
 H        -2.001712        -0.040259        -3.608965
 H        -3.271532        -0.416816         0.534699
 H        -3.862777        -1.561426        -0.790744
 H        -1.801955        -2.147397        -1.401992
 H        -1.714000         0.782269         0.958182
 H        -0.557485         2.057054         0.502537
 H        -2.462488         2.247478        -1.147266
 H        -0.917855         1.416084        -1.934095
