19
Iteration:  3482charge 0 multiplicity 1
 C        -3.230746         0.336385        -2.740584
 C        -2.566874         0.001078        -1.372383
 C        -2.912550        -1.285938        -0.544172
 C        -1.522175        -1.220373        -1.247661
 O        -0.439269        -1.176546        -0.298260
 C        -0.026588         0.044502         0.029251
 O         0.575881         0.219608         1.094099
 C        -0.397485         1.103607        -0.983497
 C        -1.910065         1.285604        -0.829268
 H        -3.663124        -0.470388        -3.360728
 H        -4.121740         0.995948        -2.499701
 H        -2.546631         0.863222        -3.347976
 H        -2.812234        -1.158742         0.558424
 H        -3.680464        -2.032800        -0.777403
 H        -1.324415        -1.867290        -2.153906
 H         0.229816         1.943367        -0.815554
 H        -0.230237         0.721052        -2.061905
 H        -2.170446         1.402111         0.297795
 H        -2.303942         2.321510        -1.142848
