19
Iteration:  1596charge 0 multiplicity 1
 C        -2.993805         0.061856        -2.912445
 C        -2.559483        -0.088410        -1.464862
 C        -2.982629        -1.114891        -0.431157
 C        -1.669410        -1.281607        -1.146880
 O        -0.418594        -1.213080        -0.354307
 C        -0.011724         0.149003         0.091725
 O         0.887814         0.179492         0.890891
 C        -0.609380         1.365049        -0.648535
 C        -2.152258         1.243412        -0.822093
 H        -3.018267        -0.905847        -3.515349
 H        -3.980993         0.502096        -3.104965
 H        -2.236616         0.749016        -3.409081
 H        -2.868645        -0.651394         0.550321
 H        -3.795109        -1.724615        -0.707565
 H        -1.579549        -1.959730        -1.989132
 H        -0.182572         2.369177        -0.315109
 H        -0.205625         1.242951        -1.759035
 H        -2.543546         1.414801         0.252021
 H        -2.580196         2.069520        -1.409761
