19
Iteration:  4243
 C        -3.297332        -0.078943        -2.844394
 C        -2.474105        -0.071805        -1.515842
 C        -2.946082        -0.988071        -0.412058
 C        -1.675791        -1.219245        -1.102910
 O        -0.419342        -1.057794        -0.514517
 C         0.047711         0.117499         0.177165
 O         0.971407        -0.168166         0.856939
 C        -0.691422         1.438350        -0.270599
 C        -1.914977         1.360674        -1.216241
 H        -3.987144        -0.925767        -3.093187
 H        -3.972071         0.750548        -2.718761
 H        -2.661875        -0.014557        -3.677133
 H        -3.061763        -0.568718         0.573915
 H        -3.788328        -1.604015        -0.686985
 H        -1.582576        -2.092053        -1.811028
 H        -1.041089         1.838993         0.756430
 H        -0.075347         2.303728        -0.613998
 H        -2.678431         1.995643        -0.689724
 H        -1.775599         1.805981        -2.145076
