19
Iteration:   676
 C        -3.082101        -0.019727        -2.927952
 C        -2.510802        -0.014856        -1.488290
 C        -3.014277        -0.986323        -0.386328
 C        -1.714866        -1.182632        -1.095377
 O        -0.470082        -1.166366        -0.359458
 C         0.032266         0.039052         0.126864
 O         1.043858         0.003412         0.780275
 C        -0.664873         1.329295        -0.439592
 C        -2.096640         1.350966        -1.036128
 H        -2.908498        -1.061009        -3.215702
 H        -4.158220         0.321181        -3.095745
 H        -2.352734         0.458058        -3.715439
 H        -3.048943        -0.548525         0.695739
 H        -3.872889        -1.731299        -0.571810
 H        -1.568678        -1.994361        -1.716439
 H        -0.685337         2.126154         0.340838
 H        -0.085092         1.705333        -1.192739
 H        -2.822090         1.594866        -0.265564
 H        -2.283160         2.127897        -1.875154
