19
Iteration:   128
 C        -2.934599        -0.092835        -2.944740
 C        -2.491228        -0.081495        -1.501070
 C        -3.179396        -1.091904        -0.586770
 C        -1.730274        -1.235723        -0.950473
 O        -0.698203        -1.074681        -0.032459
 C         0.011369         0.111077         0.145506
 O         1.217581         0.040618         0.078147
 C        -0.825173         1.410059         0.149362
 C        -1.855126         1.282768        -1.100300
 H        -3.606127        -0.855907        -3.250386
 H        -3.455807         0.878645        -3.227664
 H        -2.022136         0.228751        -3.483771
 H        -3.554104        -0.766652         0.358995
 H        -3.725846        -1.736509        -1.296295
 H        -1.465999        -2.102452        -1.529014
 H        -1.441603         1.598312         1.192781
 H        -0.125831         2.392020         0.022417
 H        -2.627066         2.022026        -0.882750
 H        -1.456106         1.842127        -2.023152
