19
Iteration:  2427charge 0 multiplicity 1
 C        -3.024154        -0.117008        -2.940655
 C        -2.405155        -0.026571        -1.489836
 C        -3.071129        -0.892484        -0.389357
 C        -1.774562        -1.257115        -0.974795
 O        -0.424797        -1.161530        -0.346778
 C        -0.006769         0.094377         0.029284
 O         1.124344         0.190917         0.404298
 C        -1.060117         1.244815         0.183181
 C        -1.836854         1.270732        -1.240667
 H        -3.550605        -1.117155        -3.075705
 H        -3.675369         0.697224        -3.159912
 H        -2.255220        -0.024323        -3.767355
 H        -3.159905        -0.535289         0.628899
 H        -3.895527        -1.399456        -0.798431
 H        -1.798503        -2.130656        -1.632962
 H        -1.777526         1.087709         0.948075
 H        -0.613284         2.317334         0.439694
 H        -2.505739         2.103191        -1.490864
 H        -1.031702         1.318252        -1.988644
