19
Iteration:  3310charge 0 multiplicity 1
 C        -2.760575        -0.016881        -2.929082
 C        -2.432371        -0.000223        -1.489061
 C        -3.151248        -1.143427        -0.661287
 C        -1.718065        -1.199090        -1.010927
 O        -0.744477        -1.135951         0.138006
 C        -0.038222         0.044420        -0.037197
 O         1.198177         0.066102         0.103236
 C        -0.785451         1.349081        -0.054508
 C        -2.071834         1.382246        -0.885987
 H        -3.231322        -1.000033        -3.186229
 H        -3.405919         0.866063        -3.274186
 H        -1.838769         0.082486        -3.510403
 H        -3.251973        -0.958451         0.495257
 H        -3.946349        -1.705274        -1.214494
 H        -1.405203        -1.949610        -1.856638
 H        -0.969127         1.544428         1.072237
 H        -0.079765         2.159365        -0.223232
 H        -2.998027         1.675081        -0.440166
 H        -1.867624         1.993777        -1.753772
