19
Iteration:  3665
 C        -2.997895        -0.078936        -2.892177
 C        -2.355948        -0.035177        -1.584914
 C        -3.127809        -0.666391        -0.384836
 C        -1.801548        -1.263797        -0.971347
 O        -0.509313        -1.207094        -0.362259
 C        -0.003512         0.049379         0.077278
 O         1.162082         0.206790         0.312759
 C        -1.081956         1.071667         0.147574
 C        -1.743101         1.245596        -1.145125
 H        -3.234769        -1.138841        -3.198992
 H        -3.976017         0.407451        -2.806628
 H        -2.345236         0.392963        -3.688814
 H        -3.231509        -0.178318         0.564946
 H        -4.031987        -1.162621        -0.768360
 H        -1.828943        -2.263716        -1.488498
 H        -1.702302         0.842572         1.014119
 H        -0.565323         2.116726         0.367663
 H        -2.404743         2.100987        -1.152685
 H        -0.998045         1.604277        -1.866969
