19
Iteration:  4477
 C        -2.974393        -0.024094        -3.035014
 C        -2.463098        -0.034235        -1.591043
 C        -3.062069        -0.914321        -0.443016
 C        -1.791856        -1.234548        -1.039254
 O        -0.676295        -1.216496        -0.067908
 C        -0.023680        -0.024183         0.109331
 O         1.220637         0.163884         0.215971
 C        -0.872870         1.249279         0.095303
 C        -1.831484         1.317613        -1.078081
 H        -2.929386        -0.962349        -3.523200
 H        -4.002287         0.292050        -3.130229
 H        -2.317030         0.715158        -3.589007
 H        -2.981803        -0.449520         0.603895
 H        -4.072064        -1.335083        -0.490978
 H        -1.756015        -2.095930        -1.758099
 H        -1.486479         1.261190         1.144682
 H        -0.153609         2.133035         0.044207
 H        -2.626009         2.087030        -0.840063
 H        -1.373183         1.749265        -1.901841
