19
Iteration:  1856
 C        -2.829260        -0.024728        -2.916310
 C        -2.536292        -0.032787        -1.416234
 C        -3.098851        -1.288494        -0.741841
 C        -1.589911        -1.181131        -1.081332
 O        -0.801799        -1.005193         0.098028
 C         0.050167         0.150465         0.005368
 O         1.142115         0.105467         0.473236
 C        -0.633466         1.363731        -0.549481
 C        -2.162869         1.219233        -0.698198
 H        -2.884199        -0.962758        -3.396720
 H        -3.807131         0.381564        -2.936710
 H        -2.132423         0.615192        -3.477497
 H        -3.324442        -1.139785         0.261719
 H        -3.835006        -1.833558        -1.261565
 H        -1.191753        -1.833103        -1.887121
 H        -0.311890         2.291162        -0.059588
 H        -0.306927         1.691536        -1.592926
 H        -2.709658         1.189754         0.226455
 H        -2.565085         2.107852        -1.074168
