19
Iteration:  1164
 C        -3.355135        -0.145077        -2.794476
 C        -2.501067        -0.051583        -1.548952
 C        -2.904279        -0.932111        -0.365364
 C        -1.686128        -1.271337        -1.168195
 O        -0.328239        -1.056214        -0.653202
 C        -0.044417         0.084491         0.132032
 O         0.955168         0.122471         0.849327
 C        -0.936511         1.347937        -0.010516
 C        -1.679576         1.230412        -1.298450
 H        -3.893626        -1.125477        -2.919353
 H        -3.964552         0.759629        -2.738286
 H        -2.741115        -0.160020        -3.668152
 H        -2.836245        -0.475502         0.660862
 H        -3.827053        -1.517947        -0.499523
 H        -1.683529        -2.186905        -1.845785
 H        -1.544159         1.365526         0.996577
 H        -0.193119         2.257773         0.153502
 H        -2.397584         2.003071        -1.403162
 H        -0.883234         1.455094        -2.080510
