19
Iteration:   748charge 0 multiplicity 1
 C        -3.277371         0.203214        -2.769872
 C        -2.520245        -0.050713        -1.452603
 C        -2.933925        -1.247572        -0.617197
 C        -1.599768        -1.256464        -1.162449
 O        -0.499329        -1.098832        -0.230255
 C         0.071094         0.151428         0.015564
 O         0.718686         0.167051         1.030906
 C        -0.414633         1.190269        -0.893937
 C        -1.971930         1.303025        -0.777257
 H        -3.580951        -0.787261        -3.086265
 H        -4.029119         0.959363        -2.722981
 H        -2.614658         0.418295        -3.568936
 H        -3.148750        -1.221794         0.409416
 H        -3.683012        -1.832568        -1.113439
 H        -1.212494        -2.056979        -1.852890
 H         0.089257         2.158737        -0.739611
 H        -0.210761         0.799718        -2.045832
 H        -2.253363         1.437573         0.300297
 H        -2.336213         2.106109        -1.324151
