19
Iteration:   339charge 0 multiplicity 1
 C        -3.380262        -0.182469        -2.782523
 C        -2.433693        -0.066268        -1.544032
 C        -2.830007        -0.834984        -0.257919
 C        -1.626591        -1.268380        -1.219339
 O        -0.343836        -1.076706        -0.649903
 C        -0.046664         0.022948         0.101584
 O         0.811360        -0.021801         0.948997
 C        -0.758346         1.379383        -0.172216
 C        -1.796657         1.367878        -1.290516
 H        -3.638510        -1.251754        -3.064384
 H        -4.445420         0.261364        -2.656089
 H        -2.887860         0.407036        -3.542383
 H        -2.492446        -0.443440         0.722156
 H        -3.817904        -1.268575        -0.336628
 H        -1.740424        -2.237393        -1.785998
 H        -1.205301         1.723121         0.768061
 H         0.000111         2.056648        -0.364195
 H        -2.655375         2.083592        -1.183971
 H        -1.349767         1.808541        -2.211682
