19
Iteration:  4087
 C        -2.942210        -0.010975        -2.955469
 C        -2.443662        -0.035219        -1.544261
 C        -3.150282        -0.914568        -0.513389
 C        -1.769434        -1.315539        -0.985557
 O        -0.524998        -1.195327        -0.153413
 C        -0.017184         0.026931         0.027799
 O         1.170983         0.099546         0.261402
 C        -0.889363         1.318241         0.120830
 C        -1.910756         1.339023        -1.059888
 H        -3.470423        -0.951917        -3.150410
 H        -3.849260         0.653583        -2.881652
 H        -2.281553         0.220515        -3.824206
 H        -3.218453        -0.606940         0.557650
 H        -4.064023        -1.402038        -0.890511
 H        -1.530291        -2.107097        -1.699575
 H        -1.256812         1.427090         1.159529
 H        -0.077728         2.260088         0.038932
 H        -2.980741         2.006821        -1.024309
 H        -1.349391         1.717453        -1.946006
