19
Iteration:  4497charge 0 multiplicity 1
 C        -2.880106         0.001672        -2.943022
 C        -2.405219         0.012372        -1.539258
 C        -3.200921        -0.801193        -0.517733
 C        -1.734686        -1.265804        -0.860430
 O        -0.568130        -1.226434        -0.071880
 C        -0.019369         0.050098        -0.000507
 O         1.208373         0.099329         0.109133
 C        -1.001760         1.165089         0.136706
 C        -1.849547         1.367814        -1.125404
 H        -2.914963        -1.022580        -3.323161
 H        -3.925594         0.342790        -2.953296
 H        -2.196886         0.614626        -3.629858
 H        -3.487658        -0.650985         0.541566
 H        -3.981167        -1.472580        -0.895199
 H        -1.675993        -2.200631        -1.408205
 H        -1.672059         0.792937         0.944078
 H        -0.530490         2.069285         0.416943
 H        -2.729575         2.071764        -0.982360
 H        -1.245895         1.714544        -1.966623
