19
Iteration:   969
 C        -2.641504        -0.073557        -3.024481
 C        -2.461740        -0.095148        -1.483564
 C        -3.229762        -1.042371        -0.538043
 C        -1.814403        -1.354939        -0.960002
 O        -0.659209        -1.145980        -0.109755
 C        -0.010773         0.067252         0.031814
 O         1.211248         0.145848         0.184694
 C        -0.801963         1.472424        -0.109122
 C        -2.135275         1.323447        -0.828168
 H        -2.571364        -1.098362        -3.454424
 H        -3.671961         0.314720        -3.239854
 H        -1.824894         0.702007        -3.274330
 H        -3.186304        -0.697858         0.518115
 H        -4.088433        -1.842809        -0.782528
 H        -1.551048        -2.198829        -1.574823
 H        -0.881533         1.853026         0.965286
 H        -0.030453         2.208511        -0.504498
 H        -3.089577         1.679469        -0.226333
 H        -2.019208         2.099549        -1.543105
