19
Iteration:  2575charge 0 multiplicity 1
 C        -3.561110        -0.215397        -2.642235
 C        -2.488302        -0.101117        -1.569777
 C        -2.666943        -0.862699        -0.288729
 C        -1.544852        -1.174019        -1.284598
 O        -0.185775        -0.984569        -0.821166
 C        -0.072716         0.074962         0.177509
 O         0.482473        -0.086345         1.214093
 C        -0.630005         1.386736        -0.306523
 C        -1.736483         1.320004        -1.389727
 H        -3.820512        -1.301201        -2.775100
 H        -4.479838         0.119296        -2.007755
 H        -3.257993         0.102072        -3.623111
 H        -2.459890        -0.270920         0.695193
 H        -3.480507        -1.546243        -0.459283
 H        -1.735567        -2.105870        -1.890324
 H        -0.958261         2.225809         0.607559
 H         0.336661         1.774072        -0.651247
 H        -2.421986         2.018379        -1.121539
 H        -1.290705         1.562275        -2.261190
