19
Iteration:  1015charge 0 multiplicity 1
 C        -2.847747        -0.084879        -3.038020
 C        -2.447458        -0.022331        -1.492657
 C        -3.155501        -1.127252        -0.614362
 C        -1.712398        -1.251177        -0.994377
 O        -0.672443        -1.107736         0.040110
 C         0.086578         0.090566         0.032585
 O         1.282325         0.099752         0.255051
 C        -0.819187         1.354927        -0.077693
 C        -2.212220         1.362063        -0.945769
 H        -3.291779        -0.988966        -3.255107
 H        -3.681141         0.626200        -3.182027
 H        -1.984440         0.281241        -3.727805
 H        -3.451424        -0.835772         0.395894
 H        -3.826010        -1.750472        -1.124643
 H        -1.494995        -2.184767        -1.669513
 H        -0.836524         1.626289         0.982111
 H        -0.081464         2.248343        -0.447100
 H        -2.906902         1.872925        -0.228038
 H        -2.129169         1.953435        -1.749567
