19
Iteration:  1535
 C        -3.133646        -0.143285        -2.935688
 C        -2.430736        -0.033137        -1.561279
 C        -3.022652        -1.106180        -0.621563
 C        -1.668631        -1.247191        -1.154435
 O        -0.572309        -1.096160        -0.135281
 C         0.041309         0.099542         0.094478
 O         1.085903         0.159968         0.632309
 C        -0.657137         1.341261        -0.307405
 C        -2.077036         1.349851        -0.886970
 H        -3.140529        -1.141396        -3.373748
 H        -4.136129         0.296662        -2.788922
 H        -2.596400         0.482068        -3.614316
 H        -3.284480        -0.913378         0.397816
 H        -3.851513        -1.611348        -1.034603
 H        -1.403885        -2.090782        -1.792948
 H        -0.743373         1.893934         0.550721
 H         0.056630         1.816601        -0.843312
 H        -2.854403         1.615229        -0.095716
 H        -2.100792         2.088814        -1.724588
