19
Iteration:  1454
 C        -2.853292        -0.083670        -2.977568
 C        -2.488806        -0.030455        -1.497568
 C        -3.137351        -1.090034        -0.605403
 C        -1.658315        -1.288739        -0.995030
 O        -0.579922        -1.120379        -0.190034
 C         0.055452         0.103440         0.037110
 O         1.182175         0.152175         0.508236
 C        -0.764628         1.410686        -0.291225
 C        -2.253077         1.292350        -0.792595
 H        -3.235160        -1.069285        -3.174771
 H        -3.648154         0.515898        -3.335445
 H        -2.002157         0.269895        -3.559131
 H        -3.300692        -0.776969         0.483030
 H        -3.829466        -1.792615        -1.263858
 H        -1.564466        -2.100982        -1.752577
 H        -0.808172         2.134806         0.575677
 H         0.121215         1.616892        -1.032839
 H        -2.861474         1.395228         0.041390
 H        -2.528542         2.123490        -1.448506
