19
Iteration:  4050
 C        -2.966604        -0.007333        -2.942092
 C        -2.526359        -0.021922        -1.472181
 C        -3.151172        -1.089527        -0.499408
 C        -1.725869        -1.189990        -1.056852
 O        -0.641444        -1.039871        -0.125036
 C         0.123017         0.056862         0.002968
 O         1.248558        -0.020842         0.453614
 C        -0.734731         1.307874        -0.134702
 C        -2.120352         1.310627        -1.059955
 H        -3.664707        -0.848814        -3.107665
 H        -3.421140         0.962796        -3.179395
 H        -2.076286        -0.055685        -3.726210
 H        -3.187251        -0.844876         0.541982
 H        -3.992031        -1.554264        -0.963760
 H        -1.326010        -1.786947        -1.915369
 H        -1.153543         1.414087         0.892249
 H        -0.109296         2.041033        -0.327499
 H        -2.849233         1.832471        -0.456034
 H        -1.930272         1.993297        -1.914060
