19
Iteration:   689
 C        -3.122844        -0.068943        -2.902112
 C        -2.486584         0.005818        -1.545459
 C        -2.970761        -1.044856        -0.431951
 C        -1.629519        -1.234427        -1.071881
 O        -0.460084        -1.180227        -0.311034
 C        -0.023035         0.058001         0.118203
 O         0.975798        -0.042983         0.805803
 C        -0.629539         1.457671        -0.500179
 C        -2.136541         1.391341        -0.990850
 H        -3.418161        -1.055386        -3.394972
 H        -4.149070         0.408765        -2.830399
 H        -2.514652         0.613337        -3.548215
 H        -2.874098        -0.610446         0.599004
 H        -3.824211        -1.681762        -0.679534
 H        -1.649189        -1.887987        -1.867879
 H        -0.278347         2.243010         0.214413
 H         0.167164         1.423558        -1.340886
 H        -2.755533         1.702515        -0.217919
 H        -2.193145         2.217299        -1.796881
