19
Iteration:   674
 C        -3.065347        -0.025886        -2.929146
 C        -2.533885        -0.009152        -1.495325
 C        -3.028106        -0.971376        -0.382141
 C        -1.714693        -1.184700        -1.093123
 O        -0.475313        -1.152406        -0.364613
 C         0.038580         0.032816         0.114452
 O         1.049254         0.016987         0.777855
 C        -0.670290         1.316151        -0.431693
 C        -2.083620         1.343312        -1.025868
 H        -2.927607        -1.039667        -3.286169
 H        -4.145131         0.278784        -3.041320
 H        -2.318685         0.425813        -3.693019
 H        -3.020677        -0.548006         0.671210
 H        -3.851667        -1.737448        -0.603112
 H        -1.580936        -2.091280        -1.743856
 H        -0.699291         2.053117         0.367769
 H        -0.092910         1.698097        -1.132558
 H        -2.846774         1.648449        -0.208896
 H        -2.232264         2.047455        -1.869019
