19
Iteration:  2369
 C        -2.757833        -0.161956        -2.994644
 C        -2.383189        -0.018871        -1.551494
 C        -3.190555        -0.864708        -0.472262
 C        -1.800411        -1.214431        -0.879112
 O        -0.550286        -1.232283        -0.116750
 C        -0.008687         0.084294         0.043057
 O         1.169439         0.263161        -0.003860
 C        -1.071464         1.120735         0.239009
 C        -1.858873         1.378044        -1.040297
 H        -2.757322        -1.177180        -3.407313
 H        -3.809227         0.268938        -3.157381
 H        -1.957210         0.405281        -3.487435
 H        -3.427006        -0.239069         0.398776
 H        -4.037444        -1.549912        -0.775558
 H        -1.910180        -2.193612        -1.409983
 H        -1.711914         0.732178         0.982884
 H        -0.679397         2.102200         0.489910
 H        -2.730772         2.106058        -0.755726
 H        -1.250465         1.762510        -1.939068
