19
Iteration:  2296
 C        -2.895202        -0.019921        -2.942950
 C        -2.448824        -0.062808        -1.514152
 C        -3.129845        -1.083295        -0.673074
 C        -1.672938        -1.258610        -0.940914
 O        -0.663104        -1.075159         0.079215
 C         0.069457         0.095979         0.005369
 O         1.270081         0.086235         0.152568
 C        -0.902922         1.328888         0.068358
 C        -2.064727         1.303025        -1.016926
 H        -3.586457        -0.869232        -3.199198
 H        -3.429315         0.862198        -3.018782
 H        -2.031508        -0.130164        -3.654293
 H        -3.570158        -0.648232         0.185279
 H        -3.933252        -1.653910        -1.148431
 H        -1.348717        -1.975894        -1.765460
 H        -1.587955         1.241918         0.966958
 H        -0.291214         2.396297        -0.048774
 H        -2.977942         1.772134        -0.820621
 H        -1.631117         1.773101        -1.878752
