19
Iteration:  4486
 C        -2.946517        -0.019685        -3.040947
 C        -2.415409        -0.018220        -1.483499
 C        -3.147642        -0.873477        -0.425561
 C        -1.776644        -1.286391        -1.000169
 O        -0.653051        -1.225944        -0.056181
 C         0.015990         0.004632         0.095257
 O         1.196176         0.166130         0.159722
 C        -0.891558         1.178941         0.114607
 C        -1.857331         1.358341        -1.152244
 H        -2.881006        -0.972937        -3.573208
 H        -3.961464         0.400301        -3.094557
 H        -2.325263         0.737384        -3.668454
 H        -3.131198        -0.227051         0.483202
 H        -3.975034        -1.488964        -0.789360
 H        -1.556091        -2.031442        -1.755913
 H        -1.582504         1.118335         1.022009
 H        -0.240560         1.983497         0.367356
 H        -2.691592         2.044341        -0.799767
 H        -1.337857         1.842875        -1.988340
