19
Iteration:  2548charge 0 multiplicity 1
 C        -3.430667        -0.150580        -2.645527
 C        -2.421335        -0.084061        -1.542351
 C        -2.713421        -0.902603        -0.273466
 C        -1.567407        -1.229169        -1.159279
 O        -0.221811        -0.995486        -0.705025
 C        -0.034923         0.086191         0.065709
 O         0.493751        -0.129811         1.150119
 C        -0.649124         1.386448        -0.368486
 C        -1.874189         1.365112        -1.411182
 H        -3.355155        -1.148244        -3.098219
 H        -4.308353         0.043249        -2.098747
 H        -3.304798         0.566043        -3.505181
 H        -2.362600        -0.639608         0.710601
 H        -3.587555        -1.608832        -0.348895
 H        -1.594020        -2.051460        -1.839837
 H        -0.826369         1.935459         0.457166
 H         0.310698         1.912026        -0.729542
 H        -2.715717         2.111762        -1.015460
 H        -1.543091         1.809687        -2.483307
