19
Iteration:  4679charge 0 multiplicity 1
 C        -3.421216        -0.100533        -2.842956
 C        -2.494617         0.029116        -1.571831
 C        -2.871740        -0.848095        -0.279458
 C        -1.702075        -1.227336        -1.141906
 O        -0.352796        -1.110883        -0.643907
 C        -0.053862        -0.027416         0.236882
 O         0.908099         0.022642         0.933186
 C        -0.792839         1.240503        -0.105971
 C        -1.691643         1.341615        -1.407541
 H        -3.480939        -1.056401        -3.400342
 H        -4.481466         0.188259        -2.653856
 H        -3.061211         0.535630        -3.622498
 H        -2.513165        -0.379532         0.661747
 H        -3.624239        -1.643448        -0.221000
 H        -1.887722        -2.078650        -1.854694
 H        -1.309596         1.848284         0.744975
 H         0.121147         1.927885        -0.328484
 H        -2.412340         2.099468        -1.166383
 H        -1.120549         1.656848        -2.280580
