19
Iteration:   505
 C        -2.993380        -0.160815        -2.893395
 C        -2.472068        -0.003494        -1.528606
 C        -3.152010        -0.775634        -0.404326
 C        -1.749115        -1.212652        -0.975276
 O        -0.421054        -1.129403        -0.393822
 C        -0.008787         0.064014         0.092304
 O         1.148681         0.067096         0.407511
 C        -1.010967         1.217688         0.064331
 C        -1.825736         1.303498        -1.177620
 H        -3.076212        -1.289429        -3.265290
 H        -4.068314         0.208085        -2.886849
 H        -2.257767         0.299055        -3.624149
 H        -3.239647        -0.200532         0.542483
 H        -4.011914        -1.468885        -0.665430
 H        -1.791736        -2.161732        -1.348351
 H        -1.593382         1.098268         0.923787
 H        -0.459366         2.184948         0.197177
 H        -2.647134         2.141673        -1.053492
 H        -1.166555         1.580303        -2.024402
