19
Iteration:  4810
 C        -3.317160        -0.061934        -2.801019
 C        -2.446926        -0.059689        -1.562896
 C        -2.968109        -0.817517        -0.374865
 C        -1.690744        -1.259824        -1.152704
 O        -0.365050        -1.097877        -0.551358
 C        -0.049326         0.093132         0.176658
 O         0.908400        -0.014271         0.856442
 C        -0.727963         1.346906        -0.116142
 C        -1.814515         1.207560        -1.320210
 H        -3.733679        -1.042791        -2.997930
 H        -4.147356         0.635279        -2.593315
 H        -2.801700         0.321227        -3.638698
 H        -2.647956        -0.624470         0.638075
 H        -3.823452        -1.509352        -0.379644
 H        -1.704493        -2.153918        -1.841882
 H        -1.246418         1.827690         0.748256
 H         0.091466         2.041790        -0.510700
 H        -2.568265         2.048980        -1.218869
 H        -1.156373         1.447451        -2.119735
