19
Iteration:  4321charge 0 multiplicity 1
 C        -3.527201        -0.085743        -2.693388
 C        -2.463460        -0.023755        -1.578067
 C        -2.768825        -0.870906        -0.352845
 C        -1.606209        -1.199202        -1.238547
 O        -0.349248        -1.021480        -0.628718
 C        -0.039939        -0.006183         0.189003
 O         0.812583        -0.176213         1.018577
 C        -0.704787         1.415165        -0.196724
 C        -1.772089         1.312014        -1.391125
 H        -3.546460        -1.134679        -2.941639
 H        -4.491387         0.263302        -2.385838
 H        -3.266955         0.471845        -3.582264
 H        -2.443483        -0.359418         0.549814
 H        -3.725242        -1.385953        -0.364217
 H        -1.578518        -2.070094        -1.911891
 H        -1.124202         1.803847         0.821130
 H         0.045616         2.144997        -0.450157
 H        -2.592832         2.038946        -1.387110
 H        -1.320333         1.471717        -2.291043
