19
Iteration:  2824
 C        -2.572264        -0.045943        -2.994972
 C        -2.342268        -0.091511        -1.490575
 C        -3.179215        -0.903252        -0.487157
 C        -1.728288        -1.301078        -0.928752
 O        -0.755918        -1.048491         0.090993
 C        -0.015914         0.120579         0.027431
 O         1.128155         0.133511        -0.257696
 C        -1.050862         1.172406         0.277782
 C        -1.963092         1.295051        -1.013410
 H        -3.060403        -0.925101        -3.381722
 H        -3.152109         0.904554        -3.301069
 H        -1.543400         0.056789        -3.483266
 H        -3.257040        -0.634461         0.554407
 H        -3.979014        -1.725645        -0.721319
 H        -1.496489        -2.146115        -1.488823
 H        -1.758365         0.836314         1.077668
 H        -0.533775         2.113803         0.408918
 H        -2.746311         1.977289        -0.656754
 H        -1.435586         1.816334        -1.886494
