19
Iteration:  4474
 C        -2.980816        -0.019448        -3.015622
 C        -2.484782        -0.014862        -1.637509
 C        -3.046878        -0.911540        -0.450367
 C        -1.783934        -1.229662        -1.047637
 O        -0.675211        -1.213657        -0.083758
 C        -0.003267        -0.003503         0.102304
 O         1.198629         0.139083         0.241237
 C        -0.869269         1.279204         0.096589
 C        -1.834206         1.298438        -1.043627
 H        -2.924322        -1.037658        -3.494559
 H        -4.057238         0.250974        -3.086927
 H        -2.281346         0.692517        -3.590916
 H        -2.929022        -0.610578         0.604569
 H        -4.062275        -1.340301        -0.415277
 H        -1.767145        -2.125434        -1.618043
 H        -1.379612         1.327996         1.077358
 H        -0.243062         2.093046        -0.076369
 H        -2.652338         2.048897        -0.857370
 H        -1.263572         1.691899        -1.964579
