19
Iteration:   193charge 0 multiplicity 1
 C        -2.943750        -0.149843        -2.992685
 C        -2.491239        -0.043124        -1.567843
 C        -3.144389        -0.880162        -0.401560
 C        -1.797040        -1.245492        -0.964953
 O        -0.492618        -1.147189        -0.332505
 C         0.039699         0.021604         0.074688
 O         1.197617         0.027481         0.477332
 C        -0.851305         1.345605        -0.014148
 C        -2.040682         1.377401        -1.074231
 H        -2.951866        -1.157816        -3.433050
 H        -3.949678         0.358198        -3.049468
 H        -2.353429         0.610190        -3.606500
 H        -3.082694        -0.488171         0.643619
 H        -4.034935        -1.535115        -0.639279
 H        -1.768560        -2.110917        -1.571869
 H        -1.005401         1.842434         1.106878
 H        -0.016504         2.042523        -0.528277
 H        -2.969870         1.886404        -0.778546
 H        -1.621603         1.934007        -2.021802
