19
Iteration:   518charge 0 multiplicity 1
 C        -2.997301        -0.139994        -2.952715
 C        -2.492745        -0.051050        -1.542172
 C        -3.072611        -0.693154        -0.326959
 C        -1.779818        -1.209980        -0.954851
 O        -0.476044        -1.240050        -0.409997
 C         0.014963         0.006025         0.027532
 O         1.154123         0.233576         0.414854
 C        -1.032742         1.153254         0.186028
 C        -1.816692         1.269801        -1.222274
 H        -2.987561        -1.225478        -3.271966
 H        -3.961269         0.305427        -3.192544
 H        -2.357663         0.534330        -3.612002
 H        -3.180274        -0.072282         0.547280
 H        -3.875842        -1.347773        -0.455044
 H        -1.926455        -2.115090        -1.594737
 H        -1.622810         1.050875         1.034006
 H        -0.464535         1.927410         0.342651
 H        -2.509683         2.173063        -1.333439
 H        -1.057868         1.439257        -1.971536
