19
Iteration:    67charge 0 multiplicity 1
 C        -2.875103        -0.132778        -3.034570
 C        -2.377930        -0.006806        -1.564885
 C        -3.101286        -0.777717        -0.386635
 C        -1.797595        -1.235018        -0.818310
 O        -0.483959        -1.264862        -0.210665
 C        -0.083785         0.037340         0.034630
 O         1.130888         0.181385         0.153767
 C        -1.059660         1.197949         0.159053
 C        -1.812380         1.334065        -1.096465
 H        -3.271436        -1.167133        -3.213820
 H        -3.733465         0.530204        -3.246468
 H        -2.106764         0.082870        -3.818215
 H        -3.283614        -0.083403         0.367857
 H        -4.046771        -1.301576        -0.567323
 H        -1.893145        -2.103747        -1.470291
 H        -1.662561         1.066043         1.022499
 H        -0.481327         1.999655         0.349560
 H        -2.628240         2.152667        -1.009480
 H        -1.166896         1.737746        -1.873591
