19
Iteration:  3453
 C        -3.264836         0.326260        -2.634918
 C        -2.426629        -0.026810        -1.413584
 C        -3.039653        -1.235833        -0.706959
 C        -1.569295        -1.414402        -1.244782
 O        -0.524166        -1.161579        -0.252563
 C         0.058155         0.098068         0.000108
 O         0.574536         0.340127         1.025609
 C        -0.365367         1.137497        -0.947028
 C        -1.830643         1.220919        -0.743627
 H        -3.796991        -0.490383        -3.078111
 H        -3.993159         1.027566        -2.197587
 H        -2.638529         0.843774        -3.408486
 H        -3.188740        -1.179403         0.379972
 H        -3.751220        -1.877603        -1.340552
 H        -1.302068        -2.218885        -1.979043
 H         0.231030         2.099872        -0.622068
 H        -0.149054         1.008187        -1.937247
 H        -1.974924         1.087425         0.278586
 H        -2.218640         2.163473        -1.007975
