19
Iteration:  3074
 C        -3.494695        -0.173787        -2.666748
 C        -2.499229        -0.095899        -1.481430
 C        -2.808791        -0.855521        -0.295284
 C        -1.575699        -1.223163        -1.254211
 O        -0.206401        -0.976301        -0.732978
 C         0.007073         0.030403         0.108251
 O         0.570306        -0.085396         1.153250
 C        -0.633710         1.404114        -0.293739
 C        -1.762524         1.289743        -1.410950
 H        -3.355965        -1.196458        -3.009045
 H        -4.561773         0.046121        -2.503939
 H        -3.322585         0.572403        -3.507403
 H        -2.592662        -0.447545         0.685498
 H        -3.782637        -1.391506        -0.480340
 H        -1.452212        -2.270083        -1.737215
 H        -0.984051         2.002258         0.632405
 H         0.145525         2.069206        -0.597890
 H        -2.482211         1.979737        -1.108534
 H        -1.446506         1.693763        -2.413194
