19
Iteration:  3610charge 0 multiplicity 1
 C        -3.072484        -0.044162        -2.810677
 C        -2.436177        -0.002220        -1.484001
 C        -3.108083        -0.983270        -0.544244
 C        -1.715778        -1.320102        -1.101270
 O        -0.628423        -1.128157        -0.253623
 C        -0.005142         0.110548         0.056199
 O         1.122085         0.072916         0.510840
 C        -0.720155         1.326407        -0.051262
 C        -1.889100         1.347333        -1.159518
 H        -3.522150        -1.073784        -3.005078
 H        -3.861806         0.710139        -2.879716
 H        -2.326797         0.104807        -3.690127
 H        -3.242308        -0.953864         0.509508
 H        -3.907596        -1.564361        -1.014196
 H        -1.665638        -2.172845        -1.848615
 H        -1.122766         1.367116         0.946943
 H         0.069652         2.139265        -0.188366
 H        -2.614222         1.899881        -0.580269
 H        -1.564063         1.800248        -2.076824
