19
Iteration:  3663
 C        -3.021851        -0.079321        -2.909861
 C        -2.374187        -0.035142        -1.598153
 C        -3.112649        -0.672290        -0.370184
 C        -1.784915        -1.257233        -0.967744
 O        -0.520577        -1.194551        -0.349830
 C         0.010297         0.027848         0.074767
 O         1.171160         0.193701         0.316044
 C        -1.082492         1.100373         0.143043
 C        -1.743563         1.257373        -1.154020
 H        -3.210815        -1.102140        -3.242701
 H        -3.923762         0.395232        -2.885690
 H        -2.345053         0.375331        -3.645647
 H        -3.259589        -0.267408         0.604164
 H        -3.993816        -1.203671        -0.769115
 H        -1.818731        -2.294824        -1.456646
 H        -1.791082         0.804428         0.991244
 H        -0.590732         2.082770         0.412920
 H        -2.422147         2.074714        -1.084971
 H        -0.957149         1.636117        -1.856309
