19
Iteration:   452charge 0 multiplicity 1
 C        -3.195554        -0.048431        -2.902276
 C        -2.497436        -0.000602        -1.495463
 C        -2.990107        -1.018826        -0.484561
 C        -1.644367        -1.200596        -1.076266
 O        -0.568330        -1.182341        -0.179086
 C         0.014506         0.026209         0.120416
 O         1.113483         0.117971         0.593019
 C        -0.747366         1.278294        -0.180151
 C        -1.942600         1.327558        -1.214699
 H        -3.944406        -0.858169        -2.933716
 H        -3.706998         0.881499        -3.112118
 H        -2.463034         0.072452        -3.725171
 H        -3.023390        -0.796402         0.579152
 H        -3.829516        -1.614022        -0.918431
 H        -1.318698        -1.785948        -1.887617
 H        -1.078278         1.646792         0.786800
 H        -0.052488         1.906523        -0.453663
 H        -2.785329         1.981709        -0.875829
 H        -1.705519         1.812263        -2.126654
