19
Iteration:  3709
 C        -2.963773        -0.048520        -2.995305
 C        -2.476213         0.028560        -1.525974
 C        -3.060162        -0.862367        -0.373867
 C        -1.795607        -1.210469        -0.958558
 O        -0.581226        -1.077530        -0.288628
 C         0.005381         0.068114         0.098867
 O         1.211619         0.093966         0.255626
 C        -1.068933         1.125562         0.191271
 C        -1.760076         1.229688        -1.190842
 H        -3.555460        -0.972795        -3.176736
 H        -3.669610         0.720849        -3.216977
 H        -2.104887        -0.033558        -3.709429
 H        -3.078996        -0.422629         0.645938
 H        -3.951374        -1.462849        -0.526092
 H        -1.809896        -2.068014        -1.664509
 H        -1.749583         0.836010         0.969996
 H        -0.540708         2.152001         0.508998
 H        -2.426005         2.105230        -1.161923
 H        -0.986451         1.503474        -1.945103
