19
Iteration:  1473charge 0 multiplicity 1
 C        -2.901222        -0.061698        -2.891279
 C        -2.484205        -0.080308        -1.500873
 C        -3.218085        -1.194757        -0.615900
 C        -1.720281        -1.217732        -1.108639
 O        -0.546364        -1.074569        -0.092265
 C         0.016229         0.122662         0.016153
 O         1.140258         0.179997         0.511237
 C        -0.718586         1.395668        -0.293287
 C        -2.105987         1.216823        -0.865296
 H        -3.511272        -0.882404        -3.248595
 H        -3.567823         0.830501        -3.121434
 H        -2.060206         0.216060        -3.649872
 H        -3.092730        -0.874735         0.447154
 H        -3.774147        -2.012521        -1.155394
 H        -1.493851        -1.999695        -1.839534
 H        -0.772732         1.874796         0.845797
 H        -0.005168         2.100550        -0.971418
 H        -2.845866         1.520605        -0.089000
 H        -2.017828         1.958312        -1.653681
