19
Iteration:  4757charge 0 multiplicity 1
 C        -3.473136        -0.089513        -2.621131
 C        -2.532143         0.047348        -1.486910
 C        -2.649985        -0.864464        -0.289835
 C        -1.594250        -1.144023        -1.365324
 O        -0.295043        -1.132868        -0.693228
 C        -0.018943         0.008869         0.137524
 O         0.649163        -0.035242         1.098103
 C        -0.819828         1.282981        -0.211904
 C        -1.688052         1.259642        -1.445598
 H        -4.305669        -0.773182        -2.506537
 H        -3.996590         0.854337        -2.835143
 H        -2.993917        -0.299216        -3.586315
 H        -2.367934        -0.323788         0.598601
 H        -3.628136        -1.340960        -0.120118
 H        -1.642048        -2.065484        -2.021836
 H        -1.441607         1.651573         0.706669
 H        -0.058928         2.109676        -0.420327
 H        -2.160199         2.190006        -1.550209
 H        -0.980350         1.255157        -2.190317
