19
Iteration:  3758
 C        -3.054830        -0.041268        -2.901093
 C        -2.393994        -0.051324        -1.572804
 C        -3.197837        -0.963914        -0.561529
 C        -1.693467        -1.224901        -1.049916
 O        -0.551244        -1.171641        -0.209453
 C        -0.047826         0.022560         0.133861
 O         1.116599         0.104241         0.415400
 C        -0.699284         1.318111        -0.077487
 C        -1.941051         1.343206        -1.007108
 H        -3.701257        -0.903836        -3.119280
 H        -3.847356         0.844169        -2.908670
 H        -2.311524         0.025350        -3.726211
 H        -3.340953        -0.593157         0.421760
 H        -3.725051        -1.885133        -0.810924
 H        -1.730801        -2.113012        -1.675043
 H        -0.884022         1.702576         0.962754
 H         0.091878         1.882829        -0.415771
 H        -2.816860         1.897319        -0.583123
 H        -1.660137         1.974578        -1.857838
