19
Iteration:  2194charge 0 multiplicity 1
 C        -3.353661        -0.156444        -2.883994
 C        -2.502839        -0.045215        -1.630595
 C        -2.880508        -0.816207        -0.329172
 C        -1.663780        -1.219901        -1.128218
 O        -0.364230        -1.036097        -0.632729
 C        -0.025861         0.041827         0.253279
 O         1.065151         0.140149         0.783192
 C        -1.012415         1.163148         0.076840
 C        -1.717647         1.216049        -1.343983
 H        -3.552133        -1.191963        -3.007798
 H        -4.347300         0.362201        -2.760629
 H        -2.897522         0.270916        -3.758575
 H        -2.793748        -0.312227         0.655041
 H        -3.878403        -1.288951        -0.427137
 H        -1.650339        -2.053806        -1.790739
 H        -1.681252         1.259827         0.945395
 H        -0.333957         2.169116         0.078403
 H        -2.425623         1.978107        -1.329925
 H        -0.987407         1.529101        -2.034261
