19
Iteration:  1738charge 0 multiplicity 1
 C        -2.931513        -0.086599        -3.052667
 C        -2.562296        -0.048763        -1.519640
 C        -3.086815        -1.167107        -0.458307
 C        -1.725521        -1.148712        -1.062258
 O        -0.491911        -1.113515        -0.281917
 C         0.054020         0.120622         0.011437
 O         1.007802         0.124334         0.771837
 C        -0.626195         1.385697        -0.549309
 C        -2.167916         1.276916        -0.688500
 H        -2.653785        -1.075630        -3.557208
 H        -3.973925         0.057782        -3.329351
 H        -2.275535         0.603412        -3.633619
 H        -2.967538        -0.783156         0.477520
 H        -3.891029        -1.818054        -0.674653
 H        -1.489886        -1.862443        -1.872865
 H        -0.146415         2.051312         0.115635
 H        -0.204365         1.654220        -1.405508
 H        -2.818106         1.446410         0.245717
 H        -2.506490         2.155304        -1.211389
