19
Iteration:  3058charge 0 multiplicity 1
 C        -3.497256        -0.159971        -2.693553
 C        -2.465564        -0.038077        -1.580457
 C        -2.623863        -0.858862        -0.223446
 C        -1.610063        -1.241432        -1.216160
 O        -0.237270        -0.945292        -0.831733
 C        -0.108934         0.057494         0.195206
 O         0.535222        -0.086632         1.198367
 C        -0.675331         1.325728        -0.329980
 C        -1.766135         1.269000        -1.388569
 H        -3.571205        -1.140585        -3.212479
 H        -4.488840         0.011333        -2.249296
 H        -3.234986         0.568029        -3.465090
 H        -2.116905        -0.426571         0.659878
 H        -3.443381        -1.488519         0.028955
 H        -1.697032        -2.060823        -1.829982
 H        -0.984315         1.906092         0.511890
 H         0.254076         1.886942        -0.701848
 H        -2.468277         2.145119        -1.277069
 H        -1.280761         1.446554        -2.334204
