19
Iteration:  2659charge 0 multiplicity 1
 C        -3.405511        -0.107064        -2.801401
 C        -2.507135        -0.091527        -1.586714
 C        -2.866944        -0.876449        -0.326733
 C        -1.626762        -1.148785        -1.154459
 O        -0.271745        -1.039743        -0.596769
 C         0.008879         0.020946         0.184318
 O         0.980028         0.021279         0.940233
 C        -0.984953         1.302310        -0.091925
 C        -1.797332         1.243595        -1.402361
 H        -3.931837        -1.036401        -2.846742
 H        -4.057684         0.740695        -2.942811
 H        -2.875808        -0.051667        -3.767653
 H        -2.670476        -0.417853         0.735602
 H        -3.712602        -1.565952        -0.247735
 H        -1.645335        -2.073711        -1.810454
 H        -1.670359         1.444540         0.632624
 H        -0.355324         2.162423        -0.129919
 H        -2.523559         2.144565        -1.612955
 H        -0.946917         1.416600        -2.198808
