19
Iteration:   160charge 0 multiplicity 1
 C        -2.885860        -0.067518        -2.943056
 C        -2.414638        -0.012960        -1.537655
 C        -3.093036        -0.959187        -0.481697
 C        -1.737912        -1.193131        -0.981486
 O        -0.700719        -1.127849        -0.035311
 C         0.040418        -0.024289        -0.080021
 O         1.193102         0.127782         0.307412
 C        -0.824599         1.204706        -0.073674
 C        -2.041017         1.368528        -1.058808
 H        -3.102026        -1.016742        -3.465634
 H        -3.798117         0.556051        -2.915194
 H        -2.064711         0.336735        -3.600340
 H        -3.227243        -0.672151         0.586630
 H        -3.934920        -1.627996        -0.806501
 H        -1.532003        -2.062609        -1.586089
 H        -1.247422         1.190149         1.099793
 H        -0.151796         2.185115        -0.219927
 H        -2.881392         1.817106        -0.516267
 H        -1.681875         2.085844        -1.905161
