19
Iteration:  1643
 C        -3.133519         0.163059        -2.741740
 C        -2.467418        -0.071964        -1.387375
 C        -2.999181        -1.347557        -0.669553
 C        -1.590470        -1.267905        -1.232955
 O        -0.591965        -1.104046        -0.201208
 C         0.027635         0.156080         0.065094
 O         0.765045         0.279857         1.042151
 C        -0.426821         1.258222        -1.020909
 C        -1.998181         1.256829        -0.709003
 H        -3.819653        -0.628629        -3.085295
 H        -3.798339         1.014363        -2.695649
 H        -2.471844         0.275242        -3.552042
 H        -3.001222        -1.430240         0.394491
 H        -3.637825        -2.007935        -1.283833
 H        -1.184507        -1.997069        -1.969570
 H        -0.080576         2.257519        -0.895830
 H        -0.210427         1.080740        -2.236670
 H        -2.121411         1.292193         0.326969
 H        -2.620599         2.161931        -0.925492
