19
Iteration:  2836charge 0 multiplicity 1
 C        -2.617279        -0.037676        -3.033214
 C        -2.377295        -0.073650        -1.540108
 C        -3.166005        -0.982101        -0.525203
 C        -1.756227        -1.282887        -0.848768
 O        -0.709021        -1.140138         0.093551
 C        -0.055953         0.097576         0.009361
 O         1.164249         0.160491        -0.222485
 C        -1.031635         1.259828         0.269435
 C        -1.913284         1.302245        -0.966815
 H        -3.028223        -1.007418        -3.331549
 H        -3.430974         0.755037        -3.233693
 H        -1.734741         0.205333        -3.666052
 H        -3.267362        -0.414399         0.413458
 H        -4.092043        -1.472260        -0.940405
 H        -1.644675        -2.194374        -1.396205
 H        -1.528571         1.026135         1.177788
 H        -0.571593         2.234886         0.530032
 H        -2.943357         1.837524        -0.969171
 H        -1.254505         1.887916        -1.756406
