19
Iteration:  1048
 C        -3.006271        -0.007925        -2.960416
 C        -2.452312        -0.111512        -1.451044
 C        -3.067780        -1.162651        -0.576239
 C        -1.637586        -1.281757        -1.080130
 O        -0.689664        -1.071269        -0.045226
 C        -0.017452         0.119888         0.058807
 O         1.165933         0.075471         0.358848
 C        -0.758105         1.454124        -0.088994
 C        -2.012112         1.321700        -1.051266
 H        -3.411305        -0.915567        -3.198309
 H        -3.747157         0.794166        -2.840889
 H        -2.149708         0.043431        -3.748223
 H        -3.201008        -0.921047         0.467487
 H        -3.794846        -1.719219        -1.028396
 H        -1.265306        -2.168691        -1.758525
 H        -1.138065         1.541656         0.901922
 H         0.003943         2.234553        -0.442530
 H        -2.905460         1.838742        -0.505584
 H        -1.816678         1.808441        -1.919504
