19
Iteration:  4352
 C        -3.495250        -0.058485        -2.709525
 C        -2.519856         0.037602        -1.521340
 C        -2.829229        -0.904511        -0.301380
 C        -1.646158        -1.140608        -1.187638
 O        -0.307166        -1.004443        -0.773448
 C        -0.000080        -0.047915         0.112883
 O         0.822959         0.009740         1.017286
 C        -0.819798         1.246559        -0.073067
 C        -1.630312         1.219959        -1.404437
 H        -3.997216        -1.111481        -2.702291
 H        -4.342612         0.696575        -2.710115
 H        -2.967783        -0.048124        -3.678140
 H        -2.782029        -0.459582         0.687066
 H        -3.771995        -1.420443        -0.383070
 H        -1.757643        -1.953487        -1.924183
 H        -1.461712         1.264721         0.895719
 H        -0.120232         2.103355        -0.123110
 H        -2.114653         2.161837        -1.587353
 H        -0.867423         1.038627        -2.211260
