19
Iteration:  2728charge 0 multiplicity 1
 C        -2.873922        -0.069031        -3.017754
 C        -2.482419        -0.058727        -1.516043
 C        -3.130609        -0.889036        -0.392250
 C        -1.708312        -1.252632        -0.992753
 O        -0.536661        -1.157981        -0.117392
 C        -0.029873         0.091649         0.085586
 O         1.163252         0.134934         0.201451
 C        -0.996071         1.228836         0.081320
 C        -1.902051         1.350354        -1.117277
 H        -2.793210        -1.106948        -3.294592
 H        -3.840493         0.323622        -3.366777
 H        -2.248582         0.496963        -3.642879
 H        -3.437143        -0.575186         0.551252
 H        -3.740095        -1.779578        -0.665127
 H        -1.658822        -2.176567        -1.478970
 H        -1.578117         0.918024         0.883567
 H        -0.446835         2.134527         0.244928
 H        -2.687586         2.162931        -0.998494
 H        -1.335580         1.742480        -1.999346
