19
Iteration:  4903
 C        -2.911699        -0.042959        -3.005059
 C        -2.489215        -0.019270        -1.539411
 C        -3.157772        -0.795481        -0.477439
 C        -1.772514        -1.225441        -0.885508
 O        -0.589485        -1.176431        -0.092291
 C         0.004747         0.063388         0.111420
 O         1.230765         0.158008         0.088352
 C        -1.049565         1.140760         0.215592
 C        -1.795638         1.278504        -1.178059
 H        -3.434849        -1.012435        -3.267825
 H        -3.536331         0.797970        -3.384169
 H        -2.017349         0.000378        -3.703744
 H        -3.355305        -0.345479         0.486593
 H        -3.951642        -1.465343        -0.858201
 H        -1.677492        -2.168821        -1.503403
 H        -1.632249         0.764991         1.129494
 H        -0.490797         2.044153         0.466361
 H        -2.342966         2.157150        -1.161673
 H        -0.983899         1.317073        -1.892244
