19
Iteration:  3557charge 0 multiplicity 1
 C        -3.184631        -0.026842        -2.949910
 C        -2.492459        -0.020785        -1.546706
 C        -3.046468        -0.993894        -0.445036
 C        -1.715374        -1.167423        -1.169275
 O        -0.466218        -1.085751        -0.394257
 C         0.007924         0.061891         0.178429
 O         1.054612        -0.008345         0.842038
 C        -0.619245         1.270529        -0.372646
 C        -2.041854         1.269452        -0.977152
 H        -3.543256        -1.007523        -3.425794
 H        -4.030357         0.737641        -3.028542
 H        -2.454969         0.512810        -3.655773
 H        -2.900288        -0.534234         0.509699
 H        -3.918004        -1.625814        -0.311316
 H        -1.717612        -2.030359        -1.888565
 H        -0.351210         2.040999         0.283406
 H         0.134881         1.391384        -1.291412
 H        -2.668819         1.772547        -0.070737
 H        -2.081675         2.111705        -1.738063
