19
Iteration:  2914charge 0 multiplicity 1
 C        -3.063965        -0.112874        -2.970002
 C        -2.476986        -0.070745        -1.592883
 C        -3.036672        -0.869537        -0.357828
 C        -1.715469        -1.199999        -1.014696
 O        -0.502556        -1.152097        -0.399540
 C        -0.003081         0.109462         0.177670
 O         1.172171         0.110847         0.519445
 C        -0.998265         1.239297         0.051761
 C        -1.853896         1.271218        -1.203450
 H        -3.262391        -1.200910        -3.192666
 H        -4.051630         0.487232        -3.003558
 H        -2.400053         0.328148        -3.706103
 H        -3.003979        -0.336536         0.617297
 H        -3.846841        -1.542355        -0.546529
 H        -1.750763        -1.992878        -1.864170
 H        -1.630390         1.263451         0.880673
 H        -0.287405         2.135955         0.125304
 H        -2.638368         2.017723        -1.049870
 H        -1.278746         1.681576        -2.116111
