19
Iteration:  3511
 C        -3.110053         0.070434        -2.736200
 C        -2.482416         0.020111        -1.365534
 C        -2.991119        -1.110605        -0.485850
 C        -1.616814        -1.181180        -1.249735
 O        -0.481044        -1.161534        -0.443882
 C         0.001793         0.027853         0.011717
 O         0.644415         0.087281         1.016521
 C        -0.401521         1.303151        -0.773984
 C        -1.960453         1.297956        -0.826431
 H        -3.299288        -0.963843        -3.155961
 H        -4.092200         0.535716        -2.704107
 H        -2.614151         0.765225        -3.549144
 H        -2.923200        -1.019735         0.600388
 H        -3.852523        -1.688650        -0.606402
 H        -1.538614        -1.793915        -2.129604
 H         0.066342         2.149403        -0.285802
 H        -0.116958         1.177243        -1.878950
 H        -2.466008         1.354186         0.249115
 H        -2.281863         2.123961        -1.425976
