19
Iteration:  2350charge 0 multiplicity 1
 C        -2.699489        -0.086839        -2.957921
 C        -2.390471        -0.026260        -1.439508
 C        -3.172964        -0.860737        -0.516855
 C        -1.694299        -1.303954        -0.913702
 O        -0.629321        -1.169103        -0.059655
 C        -0.054894         0.143137         0.011264
 O         1.143444         0.142399        -0.040124
 C        -1.026988         1.208366         0.221346
 C        -1.966982         1.330420        -1.072542
 H        -2.908444        -1.166073        -3.163364
 H        -3.664490         0.273216        -3.219715
 H        -1.887289         0.411571        -3.544960
 H        -3.221702        -0.767839         0.540741
 H        -3.916422        -1.521775        -0.949486
 H        -1.582768        -2.124040        -1.716323
 H        -1.744111         1.149508         1.027027
 H        -0.346550         2.245181         0.441930
 H        -2.823237         1.900820        -0.936270
 H        -1.282401         1.765343        -1.726056
