19
Iteration:  1682charge 0 multiplicity 1
 C        -3.223708         0.223893        -2.797893
 C        -2.534810        -0.088284        -1.453471
 C        -2.937360        -1.325807        -0.689006
 C        -1.517325        -1.241087        -1.175207
 O        -0.610364        -1.140797        -0.070730
 C         0.003344         0.108046         0.081546
 O         0.840322         0.308155         0.932952
 C        -0.473312         1.222033        -0.928441
 C        -2.010784         1.253799        -0.803100
 H        -3.599402        -0.722686        -3.238569
 H        -4.073860         0.900595        -2.594950
 H        -2.515350         0.834459        -3.441232
 H        -3.077926        -1.420154         0.378568
 H        -3.432641        -2.082425        -1.235034
 H        -1.240724        -1.907346        -1.965723
 H         0.004057         2.069099        -0.416928
 H        -0.082078         1.111728        -1.836860
 H        -2.115943         1.291722         0.326590
 H        -2.452280         2.007865        -1.412792
