19
Iteration:  4373
 C        -3.372105        -0.030725        -2.670933
 C        -2.405573        -0.067129        -1.530501
 C        -2.857714        -0.817723        -0.298045
 C        -1.642669        -1.280108        -1.132737
 O        -0.289554        -1.050355        -0.696728
 C        -0.034455         0.090743         0.104048
 O         0.842019        -0.105568         0.848580
 C        -0.980148         1.300603        -0.076381
 C        -1.654982         1.328294        -1.401689
 H        -4.247204        -0.845628        -2.747851
 H        -3.767469         1.063120        -2.640670
 H        -2.788819        -0.100574        -3.612560
 H        -2.632014        -0.514673         0.718789
 H        -3.810490        -1.342051        -0.424572
 H        -1.850913        -2.272531        -1.603990
 H        -1.686397         1.125138         0.786513
 H        -0.451404         2.264491         0.135803
 H        -2.473094         2.025175        -1.415497
 H        -0.974609         1.386765        -2.405225
