19
Iteration:  4790
 C        -3.497381        -0.060509        -2.723881
 C        -2.459834        -0.084093        -1.602676
 C        -2.875789        -0.959535        -0.383416
 C        -1.620901        -1.268617        -1.118981
 O        -0.318518        -1.014434        -0.626923
 C        -0.004870         0.033071         0.164971
 O         0.833072        -0.102172         1.016971
 C        -0.746836         1.396445        -0.207600
 C        -1.701226         1.359264        -1.400260
 H        -4.125298        -0.908370        -2.584709
 H        -4.013365         0.878291        -2.526556
 H        -3.023062        -0.090951        -3.714015
 H        -3.133442        -0.331263         0.462071
 H        -3.764931        -1.502546        -0.714712
 H        -1.621972        -2.307701        -1.486427
 H        -1.296357         1.835176         0.745867
 H         0.022134         2.158241        -0.543585
 H        -2.440818         2.113089        -1.221252
 H        -1.169834         1.607252        -2.241908
