19
Iteration:  3243
 C        -2.729323        -0.039795        -2.988750
 C        -2.384496        -0.010165        -1.571168
 C        -3.195827        -0.840115        -0.525154
 C        -1.781428        -1.345537        -0.866251
 O        -0.643887        -1.179721         0.046256
 C        -0.031259         0.074334         0.008156
 O         1.123874         0.225653        -0.111385
 C        -0.991155         1.159798         0.252612
 C        -1.861870         1.317257        -1.031344
 H        -2.646118        -1.079612        -3.378518
 H        -3.752050         0.310252        -3.353077
 H        -1.962004         0.422734        -3.556943
 H        -3.387794        -0.450149         0.493547
 H        -3.887078        -1.474640        -1.180838
 H        -1.603570        -2.375474        -1.363788
 H        -1.505188         0.870104         1.158343
 H        -0.510616         2.154466         0.578025
 H        -2.704525         1.885453        -0.820704
 H        -1.242805         1.802652        -1.729271
