19
Iteration:  2724charge 0 multiplicity 1
 C        -2.905981        -0.087076        -2.998999
 C        -2.488847        -0.042766        -1.512898
 C        -3.130296        -0.875095        -0.418251
 C        -1.706024        -1.235136        -0.989341
 O        -0.524438        -1.176777        -0.156564
 C        -0.045650         0.062287         0.091040
 O         1.157833         0.159673         0.245227
 C        -0.995748         1.229379         0.043714
 C        -1.886504         1.333104        -1.112864
 H        -2.799726        -1.147747        -3.228875
 H        -3.919340         0.268323        -3.224233
 H        -2.183840         0.565775        -3.587133
 H        -3.400950        -0.503718         0.641380
 H        -3.727115        -1.770645        -0.701710
 H        -1.559855        -2.182588        -1.566395
 H        -1.522967         1.041183         1.028533
 H        -0.374703         2.095149         0.243002
 H        -2.698482         2.151361        -1.095530
 H        -1.260974         1.728025        -2.009817
