19
Iteration:  4334charge 0 multiplicity 1
 C        -3.566741        -0.120805        -2.749842
 C        -2.577425         0.023901        -1.546874
 C        -2.810569        -0.856908        -0.313614
 C        -1.683660        -1.225967        -1.305606
 O        -0.282312        -1.033474        -0.722995
 C        -0.051934         0.030497         0.273643
 O         0.866090        -0.086669         1.041942
 C        -0.760144         1.329850        -0.137344
 C        -1.642276         1.320158        -1.409579
 H        -3.861449        -1.081652        -2.982805
 H        -4.482550         0.346649        -2.542984
 H        -3.090155         0.294632        -3.644167
 H        -2.450978        -0.707431         0.707035
 H        -3.561997        -1.688139        -0.193578
 H        -1.679627        -2.154752        -1.841531
 H        -1.330814         1.882128         0.656644
 H         0.148255         1.851749        -0.350270
 H        -2.142201         2.325397        -1.245950
 H        -0.998892         1.429492        -2.243612
