19
Iteration:  4753
 C        -3.447836        -0.098410        -2.585433
 C        -2.528379         0.074546        -1.514006
 C        -2.633090        -0.867822        -0.277821
 C        -1.593832        -1.185259        -1.349724
 O        -0.280447        -1.148388        -0.714821
 C        -0.085481         0.050182         0.142960
 O         0.633615        -0.044046         1.065467
 C        -0.860030         1.280335        -0.185912
 C        -1.653073         1.277363        -1.439254
 H        -4.320121        -0.790876        -2.589892
 H        -3.989063         0.837274        -2.804058
 H        -2.969746        -0.308768        -3.511748
 H        -2.324592        -0.308227         0.617661
 H        -3.575026        -1.383637        -0.118845
 H        -1.710884        -2.103241        -1.955132
 H        -1.292114         1.719490         0.716997
 H         0.024522         1.984884        -0.387899
 H        -2.174527         2.334756        -1.585176
 H        -0.926218         1.303951        -2.328293
