19
Iteration:  1240
 C        -3.223656        -0.127051        -2.823830
 C        -2.409769        -0.081768        -1.504368
 C        -3.001753        -1.064779        -0.446645
 C        -1.640184        -1.199850        -1.177052
 O        -0.404886        -1.101877        -0.523013
 C        -0.052347         0.114866         0.139003
 O         0.903742         0.068403         0.931659
 C        -0.638274         1.409721        -0.372165
 C        -2.003274         1.340151        -1.087965
 H        -3.232424        -1.229950        -3.081635
 H        -4.192460         0.310778        -2.510711
 H        -2.793731         0.451228        -3.611984
 H        -3.013044        -0.738103         0.603761
 H        -3.798166        -1.777793        -0.699539
 H        -1.616293        -2.071881        -1.934701
 H        -0.514449         2.130566         0.508787
 H         0.303841         1.585348        -1.158538
 H        -2.689153         1.724818        -0.371782
 H        -2.028077         2.041383        -1.850054
