19
Iteration:  1477
 C        -2.916883        -0.024408        -2.914307
 C        -2.487382        -0.075007        -1.512995
 C        -3.191449        -1.224911        -0.606441
 C        -1.718210        -1.225658        -1.103169
 O        -0.574777        -1.071950        -0.080683
 C         0.065198         0.119173         0.003607
 O         1.115130         0.184261         0.512925
 C        -0.709706         1.409862        -0.271737
 C        -2.095536         1.224186        -0.876582
 H        -3.577417        -0.848030        -3.189050
 H        -3.552353         0.795570        -3.082931
 H        -2.128088         0.195282        -3.581749
 H        -3.064425        -0.975359         0.454506
 H        -3.705950        -2.123911        -1.076322
 H        -1.532100        -2.043744        -1.809850
 H        -0.826187         1.847254         0.710574
 H         0.059133         1.975574        -0.868519
 H        -2.829521         1.592740        -0.231184
 H        -2.066308         1.937762        -1.703941
