19
Iteration:  3257
 C        -2.724205        -0.062145        -3.128501
 C        -2.445849        -0.078851        -1.533936
 C        -3.186968        -0.980930        -0.580460
 C        -1.771026        -1.236482        -0.877916
 O        -0.699926        -1.136707         0.095914
 C         0.014081         0.074891         0.090497
 O         1.204278         0.153239        -0.156918
 C        -0.962760         1.243687         0.276240
 C        -1.898273         1.315417        -0.954277
 H        -2.773903        -1.020646        -3.562065
 H        -3.573711         0.544720        -3.286075
 H        -2.014013         0.656301        -3.594195
 H        -3.450969        -0.523670         0.406509
 H        -4.002688        -1.679591        -0.753091
 H        -1.616487        -2.131817        -1.531768
 H        -1.612837         1.193887         1.193052
 H        -0.364171         2.109758         0.264983
 H        -2.753364         2.086756        -0.734856
 H        -1.430597         1.775679        -1.782629
