19
Iteration:   759
 C        -3.151688         0.209614        -2.733532
 C        -2.459224        -0.014409        -1.408714
 C        -2.951052        -1.243166        -0.593972
 C        -1.539405        -1.221467        -1.142707
 O        -0.531059        -1.099311        -0.231864
 C         0.011480         0.092054         0.006447
 O         0.689412         0.211022         1.018913
 C        -0.470640         1.163507        -0.974521
 C        -1.983833         1.212622        -0.792448
 H        -3.848389        -0.528702        -3.116373
 H        -3.924019         0.920674        -2.431188
 H        -2.586872         0.771075        -3.408052
 H        -3.010422        -1.117394         0.466164
 H        -3.581232        -1.905677        -1.160644
 H        -1.373426        -1.867144        -2.064669
 H         0.089770         2.117506        -0.945739
 H        -0.308544         0.705810        -2.131787
 H        -2.299515         1.270727         0.286953
 H        -2.389471         2.049232        -1.241240
