19
Iteration:   742charge 0 multiplicity 1
 C        -3.302917         0.168345        -2.787619
 C        -2.549877        -0.029373        -1.443979
 C        -3.015343        -1.239978        -0.609961
 C        -1.549838        -1.275958        -1.217247
 O        -0.500310        -1.102696        -0.236151
 C         0.056819         0.119252         0.043728
 O         0.770785         0.179288         1.048661
 C        -0.395507         1.249517        -0.896963
 C        -1.953883         1.290082        -0.783438
 H        -3.621981        -0.848277        -3.170491
 H        -4.159462         0.902681        -2.744712
 H        -2.555479         0.278707        -3.679575
 H        -3.086039        -1.176734         0.574164
 H        -3.741802        -1.977799        -1.091678
 H        -1.372878        -2.045168        -1.928194
 H         0.146380         2.134057        -0.509626
 H        -0.098845         0.993921        -1.808444
 H        -2.275075         1.484503         0.271248
 H        -2.266417         2.237047        -1.395743
