19
Iteration:  3857charge 0 multiplicity 1
 C        -3.180099         0.276213        -2.826194
 C        -2.583713        -0.025972        -1.432297
 C        -3.037020        -1.156682        -0.616694
 C        -1.583559        -1.236331        -1.129492
 O        -0.524937        -1.144206        -0.183104
 C         0.055746         0.038229        -0.022866
 O         0.749212         0.183625         0.937282
 C        -0.401919         1.208828        -0.905152
 C        -1.921482         1.208930        -0.708125
 H        -3.454101        -0.737925        -3.195176
 H        -4.189095         0.908259        -2.875499
 H        -2.482794         0.711010        -3.567846
 H        -2.947616        -1.352802         0.446476
 H        -3.642438        -1.921450        -0.978178
 H        -1.423615        -2.088514        -1.818205
 H         0.017502         2.187962        -0.516953
 H        -0.202652         1.088527        -2.037520
 H        -2.275238         1.277796         0.369878
 H        -2.395295         2.126815        -1.035442
