19
Iteration:    89
 C        -2.877861        -0.083971        -2.932397
 C        -2.421099        -0.042901        -1.507212
 C        -3.096619        -0.822520        -0.480352
 C        -1.704342        -1.230094        -0.976344
 O        -0.662079        -1.210618        -0.006681
 C        -0.011183         0.033285         0.056595
 O         1.202604         0.172216         0.063768
 C        -1.018048         1.208353         0.161153
 C        -1.862922         1.334754        -1.177777
 H        -3.518975        -0.942500        -3.306008
 H        -3.452067         0.832524        -3.171202
 H        -1.958388         0.006441        -3.543468
 H        -3.089508        -0.573743         0.567900
 H        -3.949298        -1.438038        -0.776788
 H        -1.706155        -2.193676        -1.493848
 H        -1.717844         1.014927         0.908928
 H        -0.462289         1.985504         0.458841
 H        -2.780437         2.013416        -1.102733
 H        -1.328521         1.732861        -2.032906
