19
Iteration:   396charge 0 multiplicity 1
 C        -3.245298        -0.077284        -2.882281
 C        -2.566605        -0.004923        -1.540545
 C        -2.988245        -0.947056        -0.412051
 C        -1.709100        -1.247868        -1.106616
 O        -0.434676        -1.066962        -0.475676
 C         0.028670         0.052421         0.179388
 O         1.030487         0.014664         0.865592
 C        -0.677055         1.308702        -0.297319
 C        -1.938570         1.341164        -1.184490
 H        -3.413565        -1.180985        -3.166427
 H        -4.216016         0.442196        -2.877653
 H        -2.643951         0.126256        -3.788070
 H        -2.813890        -0.577396         0.643546
 H        -3.685146        -1.865969        -0.287437
 H        -1.604183        -2.053536        -1.739736
 H        -0.924999         1.944809         0.588767
 H         0.039453         1.835474        -0.757884
 H        -2.738825         1.913654        -0.660738
 H        -1.599119         1.737154        -2.110333
