19
Iteration:  1343
 C        -3.064130         0.249354        -2.853011
 C        -2.563896        -0.070971        -1.401049
 C        -3.041702        -1.376970        -0.699063
 C        -1.601436        -1.270650        -1.167211
 O        -0.669303        -1.012356         0.000087
 C         0.032525         0.144444         0.014517
 O         0.897979         0.286617         0.795533
 C        -0.461361         1.202102        -0.912775
 C        -2.020239         1.142024        -0.657177
 H        -3.480765        -0.620139        -3.362847
 H        -3.825150         1.018920        -2.839340
 H        -2.124766         0.628065        -3.378987
 H        -3.146736        -1.578633         0.440423
 H        -3.761234        -1.995703        -1.320800
 H        -1.081402        -1.849754        -1.881017
 H         0.005293         2.270144        -0.571460
 H        -0.249862         0.941697        -2.033852
 H        -2.195406         0.997628         0.416849
 H        -2.392588         2.161657        -0.918787
