19
Iteration:  2936charge 0 multiplicity 1
 C        -3.251611        -0.111189        -2.828728
 C        -2.477654        -0.066495        -1.592876
 C        -3.024935        -0.855366        -0.396035
 C        -1.744063        -1.296095        -1.079606
 O        -0.284033        -1.125202        -0.504008
 C         0.011451         0.037676         0.068223
 O         0.985925         0.159788         0.768123
 C        -0.902203         1.253545        -0.034071
 C        -1.807788         1.313026        -1.238456
 H        -3.749970        -1.108792        -2.974529
 H        -3.918314         0.804715        -2.971962
 H        -2.525890         0.070971        -3.615996
 H        -3.016920        -0.353324         0.564033
 H        -3.924163        -1.357664        -0.729058
 H        -1.715752        -2.322871        -1.651002
 H        -1.348131         1.317203         0.909186
 H        -0.109590         2.079312         0.018761
 H        -2.518312         2.072977        -1.204398
 H        -1.258320         1.528036        -2.200535
