19
Iteration:  4637charge 0 multiplicity 1
 C        -3.197266        -0.036367        -2.841504
 C        -2.420131        -0.037982        -1.545838
 C        -3.034298        -0.903351        -0.458207
 C        -1.746954        -1.232711        -1.039811
 O        -0.510101        -1.164350        -0.307110
 C         0.018294         0.004350         0.077644
 O         1.106693         0.006025         0.623520
 C        -0.867602         1.333039        -0.075869
 C        -1.813802         1.404560        -1.296986
 H        -3.327359        -1.084446        -3.164324
 H        -4.226536         0.308426        -2.608131
 H        -2.654862         0.517315        -3.638310
 H        -3.007494        -0.690675         0.623763
 H        -3.828300        -1.601915        -0.727824
 H        -1.508712        -2.123439        -1.668349
 H        -1.553305         1.244569         0.791994
 H        -0.158404         2.138745         0.010123
 H        -2.551970         2.174016        -1.135942
 H        -1.206167         1.854363        -2.226965
