19
Iteration:  2034
 C        -3.262653        -0.025413        -2.799698
 C        -2.463475        -0.109175        -1.561601
 C        -2.921597        -1.031112        -0.391452
 C        -1.631924        -1.273194        -1.130944
 O        -0.345792        -1.140433        -0.481041
 C        -0.017753         0.091437         0.119294
 O         0.853261         0.073718         0.968792
 C        -0.631470         1.372838        -0.402344
 C        -2.040978         1.367239        -1.150489
 H        -3.529430        -1.104813        -3.193048
 H        -4.189390         0.573229        -2.830767
 H        -2.610366         0.335349        -3.727800
 H        -2.865201        -0.621709         0.620367
 H        -3.705561        -1.836437        -0.576911
 H        -1.469059        -2.030340        -1.837186
 H        -0.603247         2.159103         0.351790
 H         0.117650         1.692850        -1.242518
 H        -2.840349         1.711334        -0.399080
 H        -2.008636         2.059627        -2.000078
