19
Iteration:   712charge 0 multiplicity 1
 C        -3.227020         0.016194        -2.791176
 C        -2.458402         0.018532        -1.513968
 C        -2.990990        -1.109638        -0.512423
 C        -1.602076        -1.246181        -1.210084
 O        -0.551190        -1.096377        -0.295583
 C         0.032288         0.071245         0.060002
 O         0.877915         0.116745         0.919286
 C        -0.525455         1.296815        -0.601189
 C        -1.995148         1.279655        -0.924330
 H        -3.505713        -1.087388        -2.961209
 H        -4.226746         0.474173        -2.866390
 H        -2.599757         0.407748        -3.590268
 H        -2.926172        -0.885219         0.526420
 H        -3.807750        -1.666431        -0.892719
 H        -1.555225        -2.013236        -1.990264
 H        -0.194023         2.079711         0.091152
 H         0.220946         1.373521        -1.532812
 H        -2.547341         1.500730        -0.063886
 H        -2.112328         2.158737        -1.616846
