19
Iteration:  1998charge 0 multiplicity 1
 C        -3.330539         0.014257        -2.830507
 C        -2.459582        -0.036937        -1.602360
 C        -2.986870        -1.238365        -0.559770
 C        -1.616818        -1.274546        -1.194554
 O        -0.534874        -1.095236        -0.213787
 C         0.055577         0.103680         0.120509
 O         0.999900         0.162411         0.942464
 C        -0.579210         1.366821        -0.528202
 C        -2.003220         1.299891        -1.059243
 H        -3.921672        -0.945161        -2.923916
 H        -4.026869         0.934896        -2.774856
 H        -2.463188         0.121716        -3.662834
 H        -3.018749        -1.045519         0.534562
 H        -3.759457        -1.901652        -0.862472
 H        -1.276941        -1.972591        -2.057207
 H        -0.387159         2.169073         0.207791
 H         0.182145         1.573009        -1.196824
 H        -2.697211         1.475901        -0.196166
 H        -2.246919         2.283825        -1.713190
