19
Iteration:  4051charge 0 multiplicity 1
 C        -2.959962        -0.008318        -2.935373
 C        -2.541850        -0.013126        -1.485991
 C        -3.153309        -1.086460        -0.495722
 C        -1.733414        -1.187775        -1.059722
 O        -0.637860        -1.040313        -0.123066
 C         0.120966         0.046087         0.010712
 O         1.248947        -0.007773         0.446368
 C        -0.734305         1.298687        -0.129780
 C        -2.102411         1.301265        -1.064752
 H        -3.654120        -0.834941        -3.098999
 H        -3.431255         0.966152        -3.162094
 H        -2.074266        -0.061899        -3.737321
 H        -3.214659        -0.888291         0.537900
 H        -3.974281        -1.568905        -0.958114
 H        -1.318720        -1.812167        -1.902968
 H        -1.180632         1.410037         0.889247
 H        -0.058300         2.080932        -0.310944
 H        -2.900146         1.851373        -0.426180
 H        -1.940049         2.003781        -1.921536
