19
Iteration:  3945charge 0 multiplicity 1
 C        -3.105699         0.099573        -2.795758
 C        -2.518102        -0.039333        -1.432870
 C        -2.992478        -1.093733        -0.543486
 C        -1.666133        -1.239752        -1.168876
 O        -0.629284        -1.062945        -0.320542
 C         0.001945         0.069258         0.048214
 O         0.923924         0.101533         0.878100
 C        -0.485994         1.257850        -0.733386
 C        -2.033274         1.207293        -0.770995
 H        -2.847050        -0.795760        -3.354013
 H        -4.180377         0.305429        -3.010845
 H        -2.378595         0.735335        -3.215927
 H        -3.040660        -0.848339         0.483096
 H        -3.933808        -1.461003        -0.896465
 H        -1.277332        -1.897328        -1.966657
 H         0.087572         2.108781        -0.315620
 H        -0.112978         1.224983        -1.878001
 H        -2.413456         1.261443         0.274426
 H        -2.255710         2.199700        -1.110941
