19
Iteration:  1993charge 0 multiplicity 1
 C        -3.292816        -0.012618        -2.852018
 C        -2.474788        -0.017456        -1.548389
 C        -2.946697        -1.303248        -0.589585
 C        -1.632157        -1.247075        -1.231011
 O        -0.561667        -1.113619        -0.161487
 C         0.066271         0.084830         0.150295
 O         1.008994         0.157909         0.917899
 C        -0.571450         1.377530        -0.554520
 C        -2.029019         1.360208        -1.028138
 H        -3.976172        -0.787560        -3.144516
 H        -3.939544         0.812379        -2.761048
 H        -2.604021         0.089152        -3.577694
 H        -2.980874        -0.922562         0.421333
 H        -3.821115        -1.914214        -0.943917
 H        -1.436660        -2.022047        -1.936392
 H        -0.277424         2.249855         0.060674
 H         0.160862         1.724330        -1.429263
 H        -2.618211         1.562117        -0.146601
 H        -2.318622         2.177487        -1.636982
