19
Iteration:  4726charge 0 multiplicity 1
 C        -3.409584        -0.109094        -2.623582
 C        -2.355880        -0.026978        -1.584986
 C        -2.776775        -0.848139        -0.188605
 C        -1.631829        -1.259583        -1.193891
 O        -0.312075        -0.981011        -0.804389
 C        -0.107402         0.030387         0.109191
 O         0.666563        -0.162116         1.065330
 C        -0.772592         1.401671        -0.216417
 C        -1.650811         1.293254        -1.434652
 H        -4.056647        -0.983085        -2.593521
 H        -4.120656         0.731973        -2.478837
 H        -3.113684        -0.123069        -3.746599
 H        -2.600268        -0.412318         0.788549
 H        -3.804059        -1.199888        -0.358037
 H        -1.609459        -2.237526        -1.721296
 H        -1.504745         1.491864         0.627644
 H        -0.138438         2.227845        -0.057309
 H        -2.432959         2.027103        -1.450634
 H        -1.051861         1.568894        -2.440999
