19
Iteration:  3556
 C        -3.185430        -0.027571        -2.950172
 C        -2.491059        -0.027026        -1.551808
 C        -3.052995        -0.994089        -0.442898
 C        -1.718859        -1.170832        -1.165748
 O        -0.464130        -1.092053        -0.402495
 C         0.009279         0.066375         0.170280
 O         1.047939        -0.007893         0.850099
 C        -0.606655         1.278749        -0.370243
 C        -2.044278         1.277123        -0.970687
 H        -3.541881        -1.019788        -3.414575
 H        -4.033765         0.705821        -3.003933
 H        -2.452689         0.520520        -3.683217
 H        -2.898664        -0.532728         0.521084
 H        -3.901407        -1.626645        -0.334691
 H        -1.710621        -2.019826        -1.894049
 H        -0.311932         2.068608         0.249274
 H         0.122939         1.377226        -1.289366
 H        -2.661141         1.761887        -0.091444
 H        -2.094522         2.110154        -1.685522
