19
Iteration:  1540
 C        -3.128541        -0.149453        -2.939985
 C        -2.477291        -0.054734        -1.544248
 C        -3.069990        -1.079517        -0.636499
 C        -1.674044        -1.263907        -1.148692
 O        -0.523030        -1.102955        -0.155037
 C         0.015375         0.114913         0.082132
 O         1.080203         0.150785         0.663061
 C        -0.646633         1.328930        -0.329344
 C        -2.059332         1.376793        -0.879838
 H        -3.031764        -1.190505        -3.328894
 H        -4.207467         0.208162        -2.906355
 H        -2.582031         0.598376        -3.705811
 H        -3.054945        -0.979890         0.517874
 H        -3.982023        -1.648531        -1.100241
 H        -1.342117        -2.127233        -1.736067
 H        -0.693214         1.984997         0.706753
 H         0.097832         2.057682        -0.985894
 H        -2.759156         1.571835         0.053408
 H        -2.096348         2.070173        -1.727567
