19
Iteration:  1287charge 0 multiplicity 1
 C        -3.057140        -0.025612        -2.920618
 C        -2.547787         0.003177        -1.508260
 C        -2.928692        -1.097995        -0.427424
 C        -1.691609        -1.181313        -1.151210
 O        -0.462469        -1.132824        -0.389356
 C        -0.023089         0.018020         0.122563
 O         0.863027         0.183894         0.897310
 C        -0.530378         1.294612        -0.639785
 C        -2.118359         1.241045        -0.829552
 H        -3.022811        -1.007078        -3.266001
 H        -4.058200         0.421044        -2.930722
 H        -2.368117         0.694804        -3.514939
 H        -2.847994        -0.699886         0.547482
 H        -3.592731        -1.894575        -0.588760
 H        -1.561435        -1.910530        -1.903956
 H        -0.244217         2.318761        -0.026180
 H        -0.128064         1.350367        -1.768021
 H        -2.536394         1.362385         0.130386
 H        -2.514047         2.109690        -1.393693
