19
Iteration:  2309charge 0 multiplicity 1
 C        -2.876622        -0.037640        -3.002921
 C        -2.444078        -0.063144        -1.522639
 C        -3.171030        -1.048936        -0.622682
 C        -1.697707        -1.233387        -0.986775
 O        -0.671743        -1.078816         0.101340
 C         0.035618         0.126513         0.060637
 O         1.229013         0.102816         0.069288
 C        -0.965117         1.305207         0.080152
 C        -1.967877         1.270742        -0.996898
 H        -3.487466        -0.942558        -3.320514
 H        -3.380480         0.851216        -3.311592
 H        -1.978747         0.052584        -3.659782
 H        -3.244294        -1.092176         0.439985
 H        -3.756427        -1.751672        -1.181898
 H        -1.356780        -2.190578        -1.464610
 H        -1.147338         1.286698         1.244402
 H        -0.413681         2.317852         0.035218
 H        -2.741655         1.976083        -0.586279
 H        -1.593514         1.863823        -1.882288
