19
Iteration:  2866
 C        -2.784914        -0.119891        -2.954189
 C        -2.394935        -0.046081        -1.513618
 C        -3.259132        -0.900195        -0.609215
 C        -1.727866        -1.226065        -0.919942
 O        -0.609705        -1.169644        -0.017492
 C        -0.014030         0.016516         0.144030
 O         1.157914         0.228092        -0.015972
 C        -0.944332         1.189712         0.166860
 C        -1.869512         1.346937        -1.065896
 H        -2.789895        -1.161743        -3.165168
 H        -3.773582         0.304017        -2.963540
 H        -2.226645         0.564920        -3.632689
 H        -3.433724        -0.528518         0.381887
 H        -4.050852        -1.521585        -1.155548
 H        -1.695307        -2.162850        -1.347099
 H        -1.665612         1.219226         1.118108
 H        -0.345475         2.092954         0.188745
 H        -2.712756         1.846461        -0.952626
 H        -1.360083         1.867746        -1.769618
