19
Iteration:  2842
 C        -2.697973        -0.062240        -3.062873
 C        -2.370045        -0.058175        -1.529333
 C        -3.151628        -0.952097        -0.562208
 C        -1.799792        -1.310769        -0.818264
 O        -0.646679        -1.193373         0.099880
 C        -0.042126         0.099116        -0.008843
 O         1.122032         0.175173        -0.178836
 C        -0.974700         1.295627         0.279573
 C        -1.906069         1.305561        -0.962452
 H        -2.953452        -1.100319        -3.319281
 H        -3.406435         0.700188        -3.267143
 H        -1.825969         0.388501        -3.582752
 H        -3.454351        -0.360975         0.284358
 H        -3.940767        -1.518449        -1.067852
 H        -1.611715        -2.111751        -1.580785
 H        -1.622735         1.059428         1.230999
 H        -0.578849         2.306461         0.341367
 H        -2.820571         1.896708        -1.001308
 H        -1.306860         1.809141        -1.656528
