19
Iteration:  3726charge 0 multiplicity 1
 C        -3.006815        -0.073688        -2.917860
 C        -2.536542        -0.086018        -1.497665
 C        -3.149327        -0.850518        -0.446614
 C        -1.674087        -1.206352        -1.146587
 O        -0.588526        -1.147672        -0.138712
 C         0.070300         0.119107         0.001739
 O         1.220203         0.015150         0.326739
 C        -0.967578         1.258249         0.117575
 C        -1.866531         1.379043        -1.153067
 H        -3.614936        -0.907557        -3.269799
 H        -3.435356         0.964233        -3.176390
 H        -2.105686        -0.103923        -3.529172
 H        -2.994994        -0.521097         0.544708
 H        -3.958931        -1.592115        -0.522457
 H        -1.559675        -2.139834        -1.752801
 H        -1.619485         0.829034         0.950923
 H        -0.640788         2.136723         0.448817
 H        -2.664225         2.125372        -1.055471
 H        -1.165844         1.437866        -1.989983
