19
Iteration:  4297
 C        -3.388605        -0.047800        -2.662841
 C        -2.357201        -0.013845        -1.528694
 C        -2.884849        -0.830655        -0.351264
 C        -1.603195        -1.257423        -1.182462
 O        -0.306804        -1.154109        -0.586149
 C        -0.004193        -0.044235         0.018499
 O         0.704136        -0.054407         0.976464
 C        -0.708152         1.333848        -0.306576
 C        -1.822762         1.434052        -1.302937
 H        -3.320120        -1.127035        -3.058738
 H        -4.421627         0.224713        -2.321199
 H        -3.158768         0.650746        -3.453194
 H        -2.634682        -0.617108         0.681673
 H        -3.627579        -1.558667        -0.538884
 H        -1.758049        -2.183286        -1.799649
 H        -1.061613         1.579884         0.755284
 H         0.002141         2.198200        -0.518702
 H        -2.640390         1.931520        -0.834047
 H        -1.728523         1.929426        -2.212578
