19
Iteration:  1417charge 0 multiplicity 1
 C        -2.800087         0.024475        -2.930093
 C        -2.555101        -0.070436        -1.422248
 C        -3.090518        -1.140686        -0.575574
 C        -1.710394        -1.246127        -1.085942
 O        -0.628281        -1.064700        -0.129529
 C         0.026053         0.122014         0.011142
 O         1.100747         0.162580         0.561134
 C        -0.691312         1.323511        -0.498952
 C        -2.201153         1.190731        -0.769212
 H        -2.444496        -0.846122        -3.444819
 H        -3.844730         0.322773        -3.212810
 H        -2.056490         0.729599        -3.370586
 H        -3.180170        -1.034658         0.460496
 H        -3.816360        -1.768097        -0.924211
 H        -1.403057        -2.007686        -1.748646
 H        -0.459331         2.226917         0.202460
 H        -0.133363         1.687450        -1.425383
 H        -2.588185         1.216227         0.254406
 H        -2.594271         2.052916        -1.287278
