19
Iteration:  1953charge 0 multiplicity 1
 C        -2.938260         0.027452        -2.843543
 C        -2.536113        -0.065369        -1.446982
 C        -3.047183        -1.244679        -0.628008
 C        -1.634518        -1.189241        -1.146043
 O        -0.664063        -1.073036        -0.124567
 C         0.042774         0.128900         0.059896
 O         0.988820         0.179231         0.791076
 C        -0.559094         1.296522        -0.807888
 C        -2.115455         1.264601        -0.712556
 H        -3.122381        -0.977924        -3.206890
 H        -3.937426         0.671957        -2.808210
 H        -2.175728         0.626795        -3.542404
 H        -3.245140        -1.105217         0.426211
 H        -3.772510        -1.860903        -1.107868
 H        -1.311754        -1.966795        -1.896934
 H        -0.174780         2.235340        -0.377150
 H        -0.209504         1.140260        -1.783978
 H        -2.443987         1.285205         0.337521
 H        -2.578872         2.223369        -1.235811
