19
Iteration:  1292charge 0 multiplicity 1
 C        -3.047492         0.021169        -2.921229
 C        -2.549505        -0.011548        -1.458949
 C        -2.935968        -1.107412        -0.479730
 C        -1.667402        -1.237442        -1.151654
 O        -0.473059        -1.150555        -0.370675
 C        -0.038762         0.044201         0.109521
 O         0.875306         0.213540         0.900497
 C        -0.564934         1.316788        -0.686344
 C        -2.085039         1.246263        -0.808969
 H        -3.156037        -1.083221        -3.247420
 H        -4.067034         0.438573        -2.982793
 H        -2.343250         0.676107        -3.374416
 H        -2.857893        -0.662592         0.575505
 H        -3.739091        -1.883375        -0.729719
 H        -1.530430        -2.022688        -1.941728
 H        -0.222315         2.094497        -0.154846
 H        -0.126439         1.189103        -1.612573
 H        -2.482064         1.419736         0.283948
 H        -2.471024         2.150380        -1.364278
