19
Iteration:  4956
 C        -2.755576        -0.123171        -3.034130
 C        -2.376054        -0.080383        -1.564462
 C        -3.223050        -0.801182        -0.498938
 C        -1.786091        -1.242197        -0.958343
 O        -0.671888        -1.155478        -0.096318
 C        -0.052377         0.044064         0.129997
 O         1.180491         0.114498        -0.060434
 C        -0.980432         1.328832         0.272555
 C        -1.831466         1.265290        -0.968356
 H        -3.416735        -0.940764        -3.243611
 H        -3.116840         0.783237        -3.408905
 H        -1.870978        -0.432493        -3.615564
 H        -3.259571        -0.220826         0.415453
 H        -3.968886        -1.602464        -0.694051
 H        -1.766033        -2.219722        -1.532404
 H        -1.573001         1.403505         1.287958
 H        -0.266382         2.160801         0.267430
 H        -2.725121         1.856428        -0.623063
 H        -1.338662         1.758283        -1.746366
