19
Iteration:  2475
 C        -3.370362        -0.161582        -2.861040
 C        -2.452414        -0.094438        -1.556423
 C        -2.944642        -0.945221        -0.457386
 C        -1.582899        -1.301452        -1.151653
 O        -0.376413        -1.092328        -0.396476
 C         0.037252         0.103133         0.092988
 O         0.980562         0.010571         0.861271
 C        -0.827200         1.396203        -0.157326
 C        -1.890249         1.393418        -1.253924
 H        -3.970836        -1.057755        -2.927065
 H        -3.959967         0.786850        -2.877703
 H        -2.760525        -0.100594        -3.774690
 H        -2.903651        -0.464552         0.529622
 H        -3.844050        -1.633752        -0.620024
 H        -1.503776        -2.219342        -1.753450
 H        -1.169987         1.858697         0.892716
 H        -0.259808         2.208415        -0.509480
 H        -2.676045         2.027603        -0.993698
 H        -1.466711         1.801892        -2.109017
