19
Iteration:     9charge 0 multiplicity 1
 C        -3.140800        -0.161086        -2.928893
 C        -2.492119        -0.038714        -1.537855
 C        -3.076484        -0.810089        -0.375842
 C        -1.742229        -1.210691        -1.006558
 O        -0.453929        -1.120140        -0.392785
 C        -0.019008         0.111536         0.090544
 O         1.133275         0.069212         0.552958
 C        -0.946045         1.245958         0.055613
 C        -1.783541         1.321696        -1.283973
 H        -3.401880        -1.218905        -3.185723
 H        -4.078369         0.594404        -2.953504
 H        -2.303206         0.050887        -3.752878
 H        -3.173941        -0.421904         0.705981
 H        -3.661440        -1.693544        -0.576835
 H        -1.739465        -2.183725        -1.510649
 H        -1.495491         1.091033         0.885564
 H        -0.182101         2.120989         0.164902
 H        -2.693932         2.241209        -1.309647
 H        -0.956852         1.320796        -2.038209
