19
Iteration:  1307
 C        -3.040845         0.100030        -2.822412
 C        -2.488747        -0.074370        -1.427843
 C        -3.088132        -1.185320        -0.543638
 C        -1.595278        -1.302012        -1.156120
 O        -0.463113        -1.168022        -0.252939
 C         0.027162         0.169928         0.025702
 O         0.825367         0.218955         0.870138
 C        -0.539035         1.241322        -0.737687
 C        -2.098884         1.310341        -0.759770
 H        -3.204076        -0.819578        -3.348176
 H        -3.921731         0.774838        -2.852057
 H        -2.311514         0.547483        -3.530994
 H        -3.099787        -1.151743         0.473375
 H        -3.895405        -1.699708        -0.949596
 H        -1.381665        -2.031188        -1.964400
 H        -0.144558         2.308470        -0.405023
 H        -0.253946         1.223373        -1.914954
 H        -2.501012         1.378672         0.182440
 H        -2.425690         2.121388        -1.334989
