19
Iteration:   513
 C        -2.991295        -0.151770        -2.917216
 C        -2.493783        -0.024664        -1.515407
 C        -3.091965        -0.716738        -0.361951
 C        -1.753395        -1.204575        -0.981534
 O        -0.454298        -1.205221        -0.403594
 C         0.006442         0.004969         0.033439
 O         1.157318         0.180203         0.417111
 C        -1.044741         1.171026         0.156171
 C        -1.839343         1.279881        -1.231328
 H        -2.918821        -1.191368        -3.299748
 H        -4.016410         0.311672        -3.057087
 H        -2.324250         0.377495        -3.591372
 H        -3.274262        -0.023786         0.480270
 H        -3.987760        -1.422533        -0.518021
 H        -1.928979        -2.164821        -1.442475
 H        -1.639132         1.024743         1.146837
 H        -0.311485         2.191957         0.256217
 H        -2.530636         2.139231        -1.222650
 H        -1.037123         1.444733        -2.010511
