19
Iteration:  2438charge 0 multiplicity 1
 C        -3.092821        -0.127315        -2.882628
 C        -2.543385        -0.039912        -1.543704
 C        -3.031768        -0.933942        -0.395695
 C        -1.686128        -1.258028        -1.060075
 O        -0.458000        -1.171498        -0.347343
 C        -0.016712         0.119148         0.080313
 O         1.114653         0.187627         0.515257
 C        -1.026788         1.248595         0.040625
 C        -1.793700         1.324503        -1.240764
 H        -3.737633        -1.017388        -3.154407
 H        -3.666351         0.738439        -3.102136
 H        -2.179501        -0.182168        -3.538035
 H        -2.970665        -0.533904         0.614530
 H        -3.953371        -1.430012        -0.573164
 H        -1.582699        -2.134824        -1.689184
 H        -1.570702         1.033530         0.921952
 H        -0.299619         2.138217         0.272733
 H        -2.459014         2.205347        -1.255404
 H        -1.013251         1.515793        -2.012431
