19
Iteration:   880charge 0 multiplicity 1
 C        -2.979816         0.009916        -2.861006
 C        -2.431489        -0.064490        -1.510669
 C        -3.097010        -1.191819        -0.660096
 C        -1.654876        -1.271730        -1.106167
 O        -0.654071        -1.062161        -0.052861
 C         0.044905         0.090037         0.064987
 O         1.187506         0.064401         0.528490
 C        -0.705832         1.412842        -0.333309
 C        -2.149110         1.322388        -0.887046
 H        -3.506459        -0.967249        -3.195393
 H        -3.806055         0.764269        -2.875954
 H        -2.227303         0.179543        -3.673565
 H        -3.266441        -1.023291         0.461390
 H        -3.936947        -1.628929        -1.279260
 H        -1.301671        -2.021769        -1.723229
 H        -0.530803         2.082766         0.589014
 H        -0.215872         1.888387        -1.320694
 H        -3.000997         1.635587        -0.190937
 H        -2.282986         1.952885        -1.719348
