19
Iteration:  4320
 C        -3.518197        -0.084868        -2.689536
 C        -2.456522        -0.024469        -1.578755
 C        -2.764960        -0.872640        -0.356106
 C        -1.606734        -1.193256        -1.230034
 O        -0.354141        -1.025685        -0.626037
 C        -0.031363         0.001426         0.184937
 O         0.803341        -0.180340         1.013555
 C        -0.705890         1.410990        -0.203081
 C        -1.782115         1.312877        -1.385215
 H        -3.551467        -1.167812        -2.956952
 H        -4.502370         0.268712        -2.351601
 H        -3.268575         0.489375        -3.570682
 H        -2.459691        -0.344183         0.542691
 H        -3.717157        -1.355411        -0.386936
 H        -1.548571        -2.072976        -1.908863
 H        -1.113555         1.794813         0.817870
 H         0.059642         2.161816        -0.445086
 H        -2.595071         2.010766        -1.394311
 H        -1.321940         1.488353        -2.298658
