19
Iteration:  4002charge 0 multiplicity 1
 C        -3.026061        -0.062721        -2.901933
 C        -2.465008        -0.007010        -1.536212
 C        -3.160423        -0.989571        -0.550054
 C        -1.735263        -1.230927        -1.152060
 O        -0.569134        -1.169210        -0.226825
 C         0.022261         0.009373         0.125313
 O         1.170069         0.119297         0.584502
 C        -0.716508         1.294397        -0.299979
 C        -2.023329         1.338624        -0.869858
 H        -3.298946        -1.087415        -3.256196
 H        -3.912733         0.608686        -2.874018
 H        -2.435011         0.509449        -3.586627
 H        -3.029575        -0.675431         0.524608
 H        -4.075836        -1.575196        -0.865039
 H        -1.482931        -2.031032        -1.823860
 H        -0.662864         1.889890         0.585481
 H        -0.048424         1.732686        -1.138144
 H        -2.774440         1.716468        -0.237399
 H        -1.863956         2.065458        -1.677639
