19
Iteration:   834charge 0 multiplicity 1
 C        -2.988978         0.085432        -2.902061
 C        -2.499379        -0.030080        -1.460019
 C        -3.096464        -1.128553        -0.532583
 C        -1.641519        -1.264740        -1.130347
 O        -0.590792        -1.109261        -0.251358
 C         0.058359         0.164744         0.054917
 O         0.995509         0.142520         0.828921
 C        -0.587049         1.282083        -0.731715
 C        -2.123193         1.215969        -0.671467
 H        -2.849157        -0.891374        -3.607620
 H        -4.093761         0.368669        -2.989817
 H        -2.411373         0.812640        -3.482630
 H        -3.102226        -1.069388         0.530813
 H        -3.750895        -1.812030        -0.969396
 H        -1.480892        -1.991226        -1.996835
 H        -0.189747         2.245219        -0.427055
 H        -0.291915         1.015185        -1.789549
 H        -2.463667         1.321618         0.339022
 H        -2.530786         2.159468        -1.200004
