19
Iteration:  4718charge 0 multiplicity 1
 C        -3.433272        -0.120072        -2.637754
 C        -2.403100        -0.067576        -1.588328
 C        -2.809649        -0.829003        -0.258683
 C        -1.671915        -1.231063        -1.180431
 O        -0.303247        -0.974280        -0.786346
 C         0.026916         0.147074         0.138613
 O         0.672087        -0.199528         1.068951
 C        -0.797341         1.346313        -0.190937
 C        -1.658185         1.271273        -1.463739
 H        -3.934119        -1.103072        -2.590599
 H        -4.081753         0.735404        -2.426148
 H        -2.908447         0.092503        -3.610572
 H        -2.619566        -0.285722         0.674494
 H        -3.781692        -1.324331        -0.327502
 H        -1.758116        -2.145926        -1.684505
 H        -1.369252         1.450887         0.683482
 H        -0.153724         2.209538        -0.169044
 H        -2.449626         2.077618        -1.255550
 H        -1.107687         1.449765        -2.493249
