19
Iteration:  2452
 C        -3.188510        -0.120786        -2.927591
 C        -2.473715        -0.031183        -1.506420
 C        -2.971649        -0.944160        -0.384400
 C        -1.703968        -1.231866        -1.150323
 O        -0.496513        -1.088126        -0.345444
 C        -0.014588         0.037902         0.128353
 O         1.091112         0.179201         0.651140
 C        -0.858973         1.230598        -0.037081
 C        -1.836003         1.300098        -1.271250
 H        -3.810860        -1.014627        -2.938284
 H        -3.762122         0.775442        -3.134386
 H        -2.532106        -0.266074        -3.826277
 H        -2.755418        -0.592281         0.624990
 H        -3.689464        -1.808288        -0.475757
 H        -1.618177        -2.041688        -1.821525
 H        -1.687944         1.424674         0.794924
 H        -0.331317         2.173766         0.007121
 H        -2.549779         1.990816        -1.020096
 H        -1.425286         1.603237        -2.164245
