19
Iteration:  3696
 C        -3.007218        -0.078412        -3.008350
 C        -2.437440        -0.039641        -1.539400
 C        -3.161354        -0.774240        -0.351877
 C        -1.821770        -1.289904        -0.956514
 O        -0.485204        -1.231689        -0.407182
 C        -0.048380         0.055220         0.160014
 O         1.148477         0.207942         0.237633
 C        -1.022005         1.178805         0.234230
 C        -1.667555         1.321066        -1.111634
 H        -3.403092        -1.064311        -3.238290
 H        -3.702490         0.636138        -3.180580
 H        -2.188972         0.118475        -3.713355
 H        -3.388497        -0.385891         0.615519
 H        -3.915234        -1.414267        -0.829189
 H        -1.905141        -2.357268        -1.363212
 H        -1.746974         1.148064         1.078972
 H        -0.432145         2.133013         0.378263
 H        -2.306494         2.176625        -1.135604
 H        -0.853674         1.500612        -1.876216
