19
Iteration:   544charge 0 multiplicity 1
 C        -3.033024        -0.063226        -3.009647
 C        -2.434538        -0.081093        -1.560329
 C        -3.074746        -0.792217        -0.303106
 C        -1.804829        -1.306596        -0.978918
 O        -0.483851        -1.129487        -0.328262
 C        -0.036908         0.035395         0.127110
 O         1.137590         0.233765         0.292425
 C        -1.059767         1.128581         0.204746
 C        -1.662634         1.247260        -1.245348
 H        -3.300549        -1.023136        -3.261042
 H        -3.930628         0.529499        -3.148806
 H        -2.428036         0.493580        -3.674618
 H        -3.108744        -0.173007         0.598365
 H        -4.054482        -1.331751        -0.490364
 H        -1.914985        -2.399625        -1.323142
 H        -1.902335         1.073497         1.022292
 H        -0.479006         2.106306         0.438193
 H        -2.334706         2.049977        -1.226877
 H        -0.944230         1.573982        -2.032728
