19
Iteration:    48charge 0 multiplicity 1
 C        -2.899789        -0.208069        -2.972208
 C        -2.453188        -0.092978        -1.566843
 C        -3.198445        -0.617891        -0.386796
 C        -1.852040        -1.285328        -0.965286
 O        -0.545779        -1.126238        -0.368204
 C        -0.007652         0.051789         0.069839
 O         1.209426         0.215250         0.283474
 C        -0.967540         1.176857         0.232120
 C        -1.809006         1.272482        -1.156900
 H        -2.950757        -1.242248        -3.318981
 H        -3.762141         0.344545        -3.108099
 H        -2.099848         0.110155        -3.580413
 H        -3.243513        -0.269217         0.656543
 H        -3.973666        -1.398667        -0.497990
 H        -1.899551        -2.316987        -1.358953
 H        -1.615479         0.829999         1.220136
 H        -0.444603         2.109564         0.395652
 H        -2.573037         1.940700        -1.049230
 H        -1.024636         1.499509        -1.912679
