19
Iteration:  2580charge 0 multiplicity 1
 C        -3.552416        -0.212313        -2.644352
 C        -2.500081        -0.071862        -1.584963
 C        -2.652064        -0.879502        -0.273418
 C        -1.559210        -1.145825        -1.276382
 O        -0.182558        -0.970499        -0.801373
 C        -0.080827         0.099480         0.180803
 O         0.489669        -0.098946         1.214221
 C        -0.621791         1.356361        -0.244354
 C        -1.760088         1.302345        -1.454578
 H        -3.957314        -1.255371        -2.635696
 H        -4.418397         0.188942        -2.178849
 H        -3.325323         0.081791        -3.703065
 H        -2.308257        -0.490580         0.624215
 H        -3.412613        -1.682989        -0.213598
 H        -1.718955        -1.980426        -1.916639
 H        -0.868528         1.947213         0.499906
 H         0.293911         1.793560        -0.744788
 H        -2.561689         2.121437        -1.172155
 H        -1.146125         1.589887        -2.443796
