19
Iteration:  1922
 C        -2.749718         0.206923        -2.907180
 C        -2.565350        -0.090266        -1.486906
 C        -3.176290        -1.215361        -0.578141
 C        -1.693552        -1.271391        -0.972049
 O        -0.600761        -1.078531        -0.074087
 C         0.025400         0.098642        -0.093580
 O         0.946590         0.318212         0.676220
 C        -0.623271         1.206599        -0.837731
 C        -2.077126         1.087452        -0.608379
 H        -2.428284        -0.580678        -3.578423
 H        -3.819903         0.311182        -2.952965
 H        -2.130845         1.155062        -3.112855
 H        -3.604430        -0.907888         0.365587
 H        -3.822588        -1.815067        -1.153272
 H        -1.465741        -2.180561        -1.611450
 H        -0.196325         2.139470        -0.430008
 H        -0.185001         1.292818        -1.854630
 H        -2.300614         0.972653         0.470339
 H        -2.494190         2.096877        -0.806398
