19
Iteration:  4382charge 0 multiplicity 1
 C        -3.351021        -0.003805        -2.744192
 C        -2.355443        -0.053765        -1.564865
 C        -2.792039        -0.858928        -0.276462
 C        -1.663685        -1.317534        -1.074063
 O        -0.350064        -1.060026        -0.671736
 C        -0.097291         0.013034         0.118691
 O         0.935497        -0.085414         0.821076
 C        -0.989314         1.332925        -0.033132
 C        -1.749748         1.323392        -1.420956
 H        -4.251651        -0.700963        -2.790995
 H        -3.852746         1.011496        -2.798521
 H        -2.787260        -0.129214        -3.672782
 H        -2.646171        -0.438168         0.723559
 H        -3.814305        -1.120782        -0.342473
 H        -1.710171        -2.301710        -1.626753
 H        -1.702777         1.294851         0.713400
 H        -0.339801         2.236091         0.134577
 H        -2.506395         2.112041        -1.380804
 H        -0.987978         1.715379        -2.262734
