19
Iteration:  3792
 C        -3.033762         0.014257        -2.949389
 C        -2.499624        -0.019690        -1.532801
 C        -3.085547        -1.050547        -0.434943
 C        -1.739469        -1.190969        -1.098845
 O        -0.578642        -1.090822        -0.245579
 C         0.089613         0.038553         0.026999
 O         1.110476        -0.038706         0.724101
 C        -0.629495         1.317726        -0.421092
 C        -2.126737         1.357318        -0.987218
 H        -3.038052        -1.005876        -3.376407
 H        -4.065970         0.628293        -2.984379
 H        -2.471367         0.778735        -3.530307
 H        -2.981405        -0.681851         0.582258
 H        -3.677002        -1.928622        -0.511819
 H        -1.550929        -2.116562        -1.709903
 H        -0.660974         1.765810         0.616163
 H         0.025316         1.887793        -0.920963
 H        -2.810988         1.579992        -0.148592
 H        -2.201575         2.145422        -1.750852
