19
Iteration:  2060
 C        -3.201731        -0.203599        -2.806687
 C        -2.548557        -0.051105        -1.503160
 C        -2.811889        -0.934689        -0.275135
 C        -1.625328        -1.155388        -1.202474
 O        -0.346080        -1.115409        -0.610033
 C        -0.054897         0.047234         0.064301
 O         0.746186         0.008621         0.985121
 C        -0.649460         1.341406        -0.373753
 C        -2.019481         1.388236        -1.095598
 H        -3.064547        -1.133950        -3.251329
 H        -4.236403         0.058617        -3.041818
 H        -2.585986         0.332877        -3.434979
 H        -2.658193        -0.325016         0.640297
 H        -3.616569        -1.600651        -0.311896
 H        -1.546969        -1.979878        -1.973263
 H        -0.644751         2.053679         0.500738
 H         0.173806         1.824670        -1.103214
 H        -2.731137         1.973022        -0.578944
 H        -1.785827         1.900521        -1.978755
