19
Iteration:  2913
 C        -3.061071        -0.118617        -2.974232
 C        -2.476138        -0.066725        -1.599472
 C        -3.031824        -0.878620        -0.353984
 C        -1.725032        -1.200584        -1.015515
 O        -0.504716        -1.144910        -0.385316
 C        -0.006865         0.111349         0.170900
 O         1.175429         0.105274         0.507752
 C        -0.999429         1.237000         0.055084
 C        -1.855281         1.278227        -1.203031
 H        -3.231909        -1.187501        -3.210605
 H        -4.033946         0.485398        -3.036305
 H        -2.403304         0.352390        -3.692641
 H        -3.000916        -0.313628         0.623357
 H        -3.849167        -1.536591        -0.555809
 H        -1.734744        -1.981531        -1.842724
 H        -1.629072         1.257150         0.918406
 H        -0.300912         2.147311         0.167635
 H        -2.587064         1.987084        -1.048305
 H        -1.309915         1.662801        -2.089972
