19
Iteration:   467
 C        -3.176811        -0.127081        -2.943718
 C        -2.565560        -0.035328        -1.556234
 C        -3.060703        -0.967123        -0.514574
 C        -1.684724        -1.196878        -1.154242
 O        -0.563580        -1.108941        -0.168612
 C         0.059638         0.087946         0.079184
 O         1.162661         0.052103         0.559404
 C        -0.791699         1.321093        -0.086601
 C        -1.893167         1.324664        -1.080797
 H        -3.629856        -1.068649        -3.029296
 H        -3.888574         0.679918        -3.149710
 H        -2.428854        -0.149409        -3.751546
 H        -2.906690        -0.634688         0.502731
 H        -3.886118        -1.607569        -0.582647
 H        -1.544317        -2.137105        -1.882196
 H        -1.220633         1.530984         1.036603
 H        -0.060990         2.274506        -0.318259
 H        -2.575448         2.088703        -0.852353
 H        -1.310206         1.629887        -1.987471
