19
Iteration:  2862
 C        -2.764370        -0.097896        -2.966901
 C        -2.401417        -0.064466        -1.517508
 C        -3.282247        -0.880663        -0.629844
 C        -1.693156        -1.236917        -0.888631
 O        -0.607392        -1.183427         0.000168
 C        -0.020831         0.031144         0.140030
 O         1.135501         0.228358        -0.055655
 C        -0.962658         1.194082         0.176244
 C        -1.861262         1.345277        -1.035239
 H        -2.823773        -1.195395        -3.200276
 H        -3.771413         0.337904        -3.019952
 H        -2.194821         0.512799        -3.667927
 H        -3.465417        -0.603843         0.406523
 H        -3.941273        -1.541442        -1.137557
 H        -1.686415        -2.304383        -1.304316
 H        -1.540672         1.297466         1.112097
 H        -0.231130         2.010547         0.271711
 H        -2.880342         1.987884        -0.869557
 H        -1.304213         1.880602        -1.897636
