19
Iteration:  4499
 C        -2.874205        -0.003740        -2.930920
 C        -2.402186         0.004791        -1.541282
 C        -3.197041        -0.801088        -0.530717
 C        -1.744651        -1.253904        -0.850302
 O        -0.556883        -1.218833        -0.073513
 C        -0.019038         0.044321        -0.009262
 O         1.211205         0.093133         0.103271
 C        -1.022002         1.170513         0.134113
 C        -1.844893         1.359861        -1.118979
 H        -2.919975        -1.007697        -3.285945
 H        -3.897993         0.367423        -2.978744
 H        -2.218999         0.598154        -3.609846
 H        -3.493355        -0.646779         0.530279
 H        -3.971279        -1.458715        -0.934491
 H        -1.743578        -2.225142        -1.400827
 H        -1.713693         0.758265         0.986303
 H        -0.530696         2.133770         0.440233
 H        -2.685293         2.105616        -1.005393
 H        -1.261029         1.722751        -1.906105
