19
Iteration:   499charge 0 multiplicity 1
 C        -3.012246        -0.183774        -2.913451
 C        -2.446939        -0.035719        -1.536017
 C        -3.165469        -0.807100        -0.424529
 C        -1.761478        -1.211458        -0.939901
 O        -0.439784        -1.085550        -0.389552
 C        -0.012889         0.102563         0.113380
 O         1.162552         0.015178         0.418212
 C        -0.960685         1.246021         0.022385
 C        -1.834464         1.330708        -1.155281
 H        -3.174463        -1.185208        -3.081536
 H        -3.985259         0.253913        -2.995674
 H        -2.431353         0.343582        -3.655274
 H        -3.215631        -0.445927         0.586599
 H        -3.941250        -1.447145        -0.713023
 H        -1.701260        -2.216660        -1.551659
 H        -1.693330         1.158560         0.920817
 H        -0.435672         2.198634         0.214004
 H        -2.580298         2.039565        -1.013014
 H        -1.289576         1.717569        -2.024404
