19
Iteration:  3961
 C        -3.053705         0.072653        -2.926846
 C        -2.516666        -0.048817        -1.486119
 C        -3.069708        -1.097906        -0.470425
 C        -1.723249        -1.240003        -1.142265
 O        -0.546956        -1.082356        -0.276262
 C         0.044748         0.125595         0.064034
 O         0.985337        -0.029739         0.812023
 C        -0.519176         1.371685        -0.609792
 C        -2.061882         1.282035        -0.809888
 H        -2.961605        -0.868384        -3.572586
 H        -4.139233         0.249542        -2.771335
 H        -2.617056         0.958101        -3.570472
 H        -2.967742        -0.816836         0.623366
 H        -3.805620        -1.922026        -0.670831
 H        -1.673560        -2.068309        -1.834663
 H        -0.281981         2.344130        -0.184060
 H        -0.009108         1.374154        -1.504903
 H        -2.547059         1.454219         0.159661
 H        -2.440637         2.088575        -1.508065
