19
Iteration:   397
 C        -3.247753        -0.077099        -2.879376
 C        -2.557312        -0.011074        -1.538765
 C        -2.993859        -0.950607        -0.407535
 C        -1.710493        -1.245981        -1.117532
 O        -0.442428        -1.062101        -0.470122
 C         0.027642         0.055393         0.174417
 O         1.030723         0.019533         0.862509
 C        -0.676292         1.303269        -0.299667
 C        -1.931422         1.333658        -1.179816
 H        -3.431524        -1.155594        -3.164701
 H        -4.169444         0.470531        -2.889234
 H        -2.629369         0.155635        -3.785283
 H        -2.827541        -0.582546         0.630884
 H        -3.682292        -1.875578        -0.297104
 H        -1.600115        -2.086969        -1.721005
 H        -0.942982         1.973901         0.637625
 H         0.058131         1.851742        -0.774190
 H        -2.714171         1.895210        -0.671430
 H        -1.621623         1.730559        -2.108785
