19
Iteration:   135charge 0 multiplicity 1
 C        -2.935205        -0.048202        -2.931753
 C        -2.521401        -0.052877        -1.494288
 C        -3.149116        -1.057351        -0.608061
 C        -1.723631        -1.281849        -0.964380
 O        -0.662903        -1.128105         0.006802
 C         0.034507         0.135092         0.116489
 O         1.224186         0.031652         0.124719
 C        -0.825698         1.413397         0.079090
 C        -1.911276         1.310263        -1.081520
 H        -3.432429        -0.982925        -3.405843
 H        -3.606437         0.758638        -3.121766
 H        -1.974388         0.036308        -3.512092
 H        -3.732029        -0.673249         0.373006
 H        -3.908665        -1.669271        -1.158135
 H        -1.398721        -2.033001        -1.766158
 H        -1.391770         1.514221         1.084514
 H        -0.250536         2.351653        -0.103259
 H        -2.706688         2.009433        -0.738129
 H        -1.417705         1.790358        -1.990237
