19
Iteration:   192charge 0 multiplicity 1
 C        -2.943432        -0.141924        -2.993187
 C        -2.494690        -0.037837        -1.570004
 C        -3.141765        -0.877875        -0.409877
 C        -1.794293        -1.246837        -0.963566
 O        -0.491852        -1.151274        -0.319830
 C         0.039639         0.017096         0.070276
 O         1.193886         0.028849         0.470637
 C        -0.848126         1.350842        -0.013371
 C        -2.045736         1.374449        -1.070087
 H        -2.925018        -1.174772        -3.447874
 H        -3.933562         0.348742        -3.042414
 H        -2.330251         0.601135        -3.631129
 H        -3.054453        -0.493830         0.691924
 H        -4.074675        -1.534882        -0.621492
 H        -1.757776        -2.141766        -1.570824
 H        -1.012526         1.806115         1.064517
 H        -0.027777         2.075622        -0.531752
 H        -2.975951         1.872793        -0.748311
 H        -1.619079         1.923624        -2.027617
