19
Iteration:  2480charge 0 multiplicity 1
 C        -3.369919        -0.150681        -2.830396
 C        -2.450827        -0.075933        -1.532242
 C        -2.956559        -0.928138        -0.482930
 C        -1.584435        -1.319484        -1.149816
 O        -0.345740        -1.080494        -0.420400
 C         0.038294         0.097418         0.095408
 O         0.941741        -0.001890         0.887694
 C        -0.802815         1.418212        -0.162541
 C        -1.905011         1.364311        -1.256173
 H        -3.951281        -1.101701        -2.989032
 H        -4.054203         0.714741        -2.785569
 H        -2.851918        -0.155716        -3.809341
 H        -2.874862        -0.459714         0.495393
 H        -3.678913        -1.662258        -0.618857
 H        -1.466367        -2.233738        -1.750404
 H        -1.205769         1.810703         0.681019
 H        -0.029940         2.208193        -0.536781
 H        -2.775081         2.097882        -0.894925
 H        -1.488656         1.812608        -2.284676
