19
Iteration:  3539
 C        -3.178936        -0.028629        -2.893547
 C        -2.511056         0.020816        -1.503674
 C        -3.009793        -0.966697        -0.493166
 C        -1.693815        -1.266619        -1.096440
 O        -0.431330        -1.156744        -0.478762
 C         0.034637         0.026517         0.063402
 O         0.887481        -0.011713         0.953140
 C        -0.494024         1.391988        -0.551161
 C        -2.020957         1.372831        -0.844515
 H        -3.283972        -1.056024        -3.118238
 H        -4.193044         0.445614        -2.964648
 H        -2.663300         0.412042        -3.678931
 H        -3.257620        -0.708279         0.553657
 H        -3.819081        -1.694214        -0.880686
 H        -1.704380        -2.179771        -1.696855
 H        -0.247489         2.223048         0.228785
 H         0.004485         1.594604        -1.471995
 H        -2.636676         1.474399         0.056434
 H        -2.230767         2.163957        -1.628248
