19
Iteration:   911charge 0 multiplicity 1
 C        -2.938710        -0.041459        -3.015712
 C        -2.531440        -0.034685        -1.571408
 C        -3.071678        -1.117927        -0.571897
 C        -1.657967        -1.220391        -1.060608
 O        -0.675515        -1.086242         0.039309
 C         0.014312         0.079324         0.079247
 O         1.206133         0.070086         0.330856
 C        -0.718576         1.450180        -0.210587
 C        -2.101304         1.246568        -0.869794
 H        -3.313498        -1.098596        -3.456326
 H        -3.626290         0.812284        -3.296485
 H        -2.110607         0.154213        -3.710697
 H        -3.303114        -1.037897         0.522701
 H        -3.875384        -1.686753        -1.051127
 H        -1.367306        -2.068820        -1.633731
 H        -0.874105         1.683459         0.849841
 H        -0.115053         2.134153        -0.623059
 H        -2.852577         1.434669        -0.081973
 H        -2.209930         2.178451        -1.637502
