19
Iteration:  2444charge 0 multiplicity 1
 C        -3.125253        -0.138722        -2.915060
 C        -2.539154        -0.059534        -1.501256
 C        -3.013898        -0.921759        -0.405859
 C        -1.670243        -1.259722        -1.109988
 O        -0.485715        -1.128485        -0.345176
 C        -0.007472         0.073168         0.113927
 O         1.100782         0.192818         0.566609
 C        -0.973087         1.233426        -0.014242
 C        -1.761040         1.341475        -1.240354
 H        -3.843736        -0.941284        -2.963399
 H        -3.762682         0.789661        -3.172835
 H        -2.264423        -0.127118        -3.557200
 H        -2.892914        -0.545334         0.618022
 H        -3.857216        -1.687785        -0.414173
 H        -1.586163        -2.136978        -1.811172
 H        -1.613144         1.148014         0.956732
 H        -0.405225         2.099286         0.091641
 H        -2.538340         2.162451        -1.055784
 H        -1.214236         1.578139        -2.212020
