19
Iteration:  4914
 C        -2.783659        -0.047826        -2.920496
 C        -2.478585         0.053678        -1.525203
 C        -3.152105        -0.839608        -0.461459
 C        -1.795717        -1.188037        -0.915718
 O        -0.596849        -1.230835        -0.044526
 C        -0.007519         0.010879         0.079632
 O         1.193839         0.183260         0.036836
 C        -1.058644         1.114200         0.149441
 C        -1.785820         1.313182        -1.211386
 H        -3.575915        -0.834225        -3.176672
 H        -3.288824         0.940744        -3.001804
 H        -1.807657        -0.115825        -3.499216
 H        -3.234370        -0.524014         0.564728
 H        -3.894124        -1.637063        -0.670222
 H        -1.865693        -2.205730        -1.439418
 H        -1.986637         0.893359         0.840216
 H        -0.741948         2.097319         0.529795
 H        -2.501808         2.052057        -1.225335
 H        -1.128992         1.683579        -1.994581
