19
Iteration:  3694charge 0 multiplicity 1
 C        -3.003625        -0.083946        -2.997555
 C        -2.434982        -0.047188        -1.553768
 C        -3.180994        -0.758300        -0.365477
 C        -1.823715        -1.296684        -0.947583
 O        -0.470944        -1.247211        -0.417282
 C        -0.051552         0.031342         0.147132
 O         1.139002         0.225421         0.241557
 C        -1.006976         1.206902         0.249789
 C        -1.664724         1.311705        -1.105007
 H        -3.400675        -1.050292        -3.230122
 H        -3.788367         0.644504        -3.150484
 H        -2.180795         0.125399        -3.656849
 H        -3.370877        -0.359370         0.606061
 H        -3.937734        -1.412607        -0.816860
 H        -1.846534        -2.348846        -1.358655
 H        -1.773147         1.181118         1.091871
 H        -0.429754         2.040681         0.431537
 H        -2.286456         2.202923        -1.197253
 H        -0.894259         1.544609        -1.897573
