19
Iteration:  1695charge 0 multiplicity 1
 C        -3.151151         0.180334        -2.772277
 C        -2.447533        -0.055417        -1.467383
 C        -3.006385        -1.343356        -0.683035
 C        -1.606038        -1.310513        -1.148712
 O        -0.559689        -1.104429        -0.099420
 C         0.047369         0.131894        -0.003646
 O         0.864957         0.259962         0.923913
 C        -0.484766         1.270985        -0.784280
 C        -2.050658         1.258465        -0.847673
 H        -3.308770        -0.780621        -3.426146
 H        -4.138977         0.600347        -2.541349
 H        -2.648936         0.841613        -3.523393
 H        -3.146363        -1.172074         0.318788
 H        -3.862676        -1.797531        -1.096892
 H        -1.136718        -1.945333        -1.921816
 H        -0.179674         2.230639        -0.489751
 H        -0.302043         1.012173        -1.793610
 H        -2.572166         1.310312         0.156080
 H        -2.423226         2.211757        -1.217822
