19
Iteration:  2213charge 0 multiplicity 1
 C        -3.180084        -0.201076        -2.895619
 C        -2.487413        -0.049008        -1.581308
 C        -3.020849        -0.789299        -0.388337
 C        -1.707278        -1.208601        -1.075676
 O        -0.338263        -1.097413        -0.515307
 C         0.041431         0.086704         0.049735
 O         1.055642         0.074955         0.706623
 C        -0.969700         1.236152         0.034091
 C        -1.850754         1.325723        -1.202890
 H        -3.366146        -1.239913        -3.224091
 H        -4.235290         0.266695        -2.895392
 H        -2.721542         0.411554        -3.663438
 H        -2.900095        -0.339414         0.578422
 H        -3.721121        -1.636556        -0.439390
 H        -1.724064        -2.231222        -1.512648
 H        -1.572099         1.077989         0.912009
 H        -0.542476         2.142726         0.274895
 H        -2.636390         2.143360        -1.152654
 H        -1.175976         1.545447        -2.072714
