19
Iteration:  4013
 C        -3.044800        -0.035115        -2.961608
 C        -2.410570        -0.017252        -1.508884
 C        -3.083157        -1.045956        -0.522311
 C        -1.695613        -1.231105        -1.079092
 O        -0.623908        -1.162460        -0.226556
 C        -0.024142         0.072949         0.142335
 O         1.119104         0.056784         0.483403
 C        -0.644170         1.339541        -0.186403
 C        -2.038331         1.356546        -0.954332
 H        -3.450974        -1.042715        -3.261588
 H        -3.919818         0.632864        -3.049354
 H        -2.296726         0.089590        -3.692389
 H        -3.143859        -0.751935         0.571159
 H        -4.057720        -1.542554        -0.807049
 H        -1.531395        -1.888783        -1.911437
 H        -0.650825         1.940010         0.709240
 H         0.243165         1.902498        -0.717025
 H        -2.819995         1.546939        -0.245249
 H        -2.227020         2.110810        -1.708853
