19
Iteration:    78
 C        -2.851383        -0.070403        -2.983649
 C        -2.361627         0.004814        -1.563901
 C        -3.131365        -0.783920        -0.394020
 C        -1.762177        -1.242527        -0.898410
 O        -0.532181        -1.236611        -0.090035
 C        -0.045694         0.009028         0.133609
 O         1.140245         0.165924         0.072113
 C        -1.053724         1.153663         0.113344
 C        -1.879072         1.367135        -1.185210
 H        -3.369529        -1.069174        -3.088764
 H        -3.600753         0.717909        -3.143173
 H        -2.049329        -0.033840        -3.753003
 H        -3.153792        -0.377553         0.588582
 H        -3.902879        -1.529079        -0.627662
 H        -1.652133        -2.121619        -1.541933
 H        -1.719300         1.005136         0.904537
 H        -0.551928         2.011028         0.279137
 H        -2.715565         2.083260        -0.904145
 H        -1.212554         1.776925        -1.944812
