19
Iteration:  1080
 C        -3.092398        -0.057427        -2.930780
 C        -2.533656        -0.067854        -1.504904
 C        -3.040960        -0.997747        -0.495775
 C        -1.608705        -1.174918        -1.083179
 O        -0.533513        -1.150176        -0.171950
 C         0.038919         0.039651         0.075883
 O         1.150110         0.126889         0.532004
 C        -0.829165         1.281809        -0.121355
 C        -1.985494         1.327810        -1.133187
 H        -3.411046        -1.035399        -3.147028
 H        -4.053544         0.516212        -3.007814
 H        -2.476139         0.389860        -3.809494
 H        -3.130788        -0.658184         0.529100
 H        -3.806270        -1.635684        -0.791602
 H        -1.408772        -2.018618        -1.837485
 H        -1.369837         1.353354         0.814237
 H        -0.190876         2.096348        -0.119880
 H        -2.915844         1.955252        -0.840479
 H        -1.700222         1.777812        -2.074644
