19
Iteration:  1789charge 0 multiplicity 1
 C        -2.894470         0.050196        -2.968474
 C        -2.553950        -0.132172        -1.515877
 C        -3.090475        -1.183488        -0.558266
 C        -1.678458        -1.321132        -1.026703
 O        -0.605487        -1.162009        -0.094174
 C         0.033808         0.125525        -0.007524
 O         1.148976         0.219848         0.536101
 C        -0.743657         1.399883        -0.329246
 C        -2.136171         1.298259        -0.857513
 H        -3.377172        -0.785405        -3.352287
 H        -3.601762         0.858422        -3.124517
 H        -2.067436         0.204517        -3.684132
 H        -3.361772        -0.960110         0.458497
 H        -3.705812        -1.914953        -1.088876
 H        -1.425644        -2.149970        -1.657279
 H        -0.497126         2.044924         0.552902
 H         0.009862         1.787232        -1.213010
 H        -2.833877         1.627396        -0.080215
 H        -2.300195         2.102611        -1.558001
