19
Iteration:  4503charge 0 multiplicity 1
 C        -2.862546        -0.018678        -2.909293
 C        -2.387486        -0.015356        -1.525231
 C        -3.183160        -0.811060        -0.552005
 C        -1.789781        -1.231229        -0.844605
 O        -0.536296        -1.194073        -0.081720
 C         0.009638         0.028714        -0.019586
 O         1.206004         0.082078         0.085732
 C        -1.076987         1.187808         0.148134
 C        -1.847762         1.331749        -1.092955
 H        -2.936914        -1.082496        -3.271888
 H        -3.855372         0.475522        -3.053627
 H        -2.270390         0.539613        -3.561596
 H        -3.458626        -0.507598         0.441690
 H        -3.918887        -1.444545        -1.070895
 H        -1.880496        -2.180709        -1.371483
 H        -1.694372         0.809578         0.957604
 H        -0.573414         2.152224         0.487797
 H        -2.535549         2.145236        -1.034165
 H        -1.150180         1.804855        -1.896642
