19
Iteration:  1018
 C        -2.867893        -0.057414        -3.039840
 C        -2.440713        -0.035294        -1.477943
 C        -3.152641        -1.135408        -0.616632
 C        -1.712296        -1.262702        -0.990588
 O        -0.699813        -1.088543         0.016308
 C         0.088224         0.079064         0.039200
 O         1.286178         0.113489         0.259793
 C        -0.822805         1.358599        -0.059933
 C        -2.184296         1.345917        -0.939175
 H        -3.279048        -1.069226        -3.204815
 H        -3.685089         0.632696        -3.127467
 H        -2.042409         0.127321        -3.685427
 H        -3.466405        -0.850364         0.354040
 H        -3.817278        -1.729584        -1.171298
 H        -1.410706        -2.108624        -1.680694
 H        -0.867082         1.690203         0.977210
 H        -0.028527         2.207864        -0.543537
 H        -2.904894         1.774955        -0.325622
 H        -1.993952         1.997911        -1.836408
