19
Iteration:  4991charge 0 multiplicity 1
 C        -2.817578        -0.097453        -2.984507
 C        -2.469128         0.014062        -1.535132
 C        -3.288612        -0.841642        -0.550935
 C        -1.753289        -1.217841        -0.869099
 O        -0.622230        -1.192925        -0.035018
 C         0.114319         0.055657        -0.119237
 O         1.290220         0.074331         0.171480
 C        -1.010874         1.219681         0.088261
 C        -1.926227         1.376406        -1.007480
 H        -3.055432        -1.188487        -3.173585
 H        -3.676471         0.490496        -3.354351
 H        -1.903900         0.301917        -3.446550
 H        -3.719216        -0.331469         0.329127
 H        -3.882291        -1.704746        -0.759323
 H        -1.720320        -2.170642        -1.497816
 H        -1.680624         0.915839         1.016458
 H        -0.426330         2.201136         0.280835
 H        -2.696768         2.089629        -0.904401
 H        -1.327002         1.772781        -1.790304
