19
Iteration:   909
 C        -2.958276        -0.041152        -3.018729
 C        -2.515551        -0.043231        -1.567151
 C        -3.075129        -1.122421        -0.577181
 C        -1.655671        -1.211309        -1.049954
 O        -0.675794        -1.077133         0.024738
 C         0.002732         0.075066         0.095786
 O         1.187080         0.066507         0.330305
 C        -0.711686         1.457043        -0.207189
 C        -2.077308         1.250279        -0.856019
 H        -3.313719        -1.022164        -3.461060
 H        -3.636673         0.791771        -3.274503
 H        -2.128598         0.096046        -3.691561
 H        -3.271446        -1.054663         0.474788
 H        -3.764793        -1.709813        -1.045196
 H        -1.343543        -2.124496        -1.667364
 H        -0.882591         1.702631         0.792002
 H        -0.140486         2.124451        -0.691038
 H        -2.783712         1.434807        -0.103982
 H        -2.247922         2.147074        -1.690871
