19
Iteration:  3831charge 0 multiplicity 1
 C        -3.037742         0.039405        -2.800223
 C        -2.480294        -0.028683        -1.436838
 C        -3.098903        -1.082749        -0.594613
 C        -1.674674        -1.249343        -1.188453
 O        -0.558815        -1.137410        -0.334309
 C         0.016479         0.022579         0.096411
 O         0.969497         0.108136         0.887040
 C        -0.537122         1.268170        -0.683613
 C        -2.030374         1.401821        -0.796258
 H        -3.110738        -0.934321        -3.266757
 H        -4.064918         0.267635        -2.598558
 H        -2.683299         0.743988        -3.530868
 H        -3.100133        -0.960857         0.495983
 H        -4.028513        -1.636487        -0.965521
 H        -1.616068        -2.035586        -1.922814
 H        -0.077087         2.173226        -0.251357
 H        -0.073746         1.101812        -1.810618
 H        -2.452285         1.575306         0.249364
 H        -2.476445         2.304406        -1.236554
