19
Iteration:  3585
 C        -3.137276         0.033243        -2.909559
 C        -2.465408         0.000882        -1.507633
 C        -3.026253        -1.046137        -0.478350
 C        -1.672424        -1.239978        -1.087920
 O        -0.524152        -1.244090        -0.221636
 C         0.056182         0.033629         0.018917
 O         1.046870         0.009960         0.673875
 C        -0.695483         1.402725        -0.234670
 C        -2.050679         1.403090        -1.112960
 H        -3.650118        -0.837601        -3.241442
 H        -3.806644         0.845993        -2.930277
 H        -2.390505         0.280970        -3.656311
 H        -3.080997        -0.753006         0.607867
 H        -3.794593        -1.770705        -0.699672
 H        -1.686721        -2.017149        -1.827148
 H        -0.693597         1.818892         0.839234
 H         0.015405         1.924498        -0.773327
 H        -2.773650         1.899180        -0.581002
 H        -1.828139         1.882915        -2.069758
