19
Iteration:  3207
 C        -2.846056        -0.127538        -3.049870
 C        -2.396696         0.001558        -1.533239
 C        -3.101511        -0.761969        -0.391195
 C        -1.768905        -1.262846        -0.917053
 O        -0.513626        -1.223804        -0.229610
 C        -0.069705         0.051046         0.139631
 O         1.104058         0.235998         0.051360
 C        -1.120297         1.139916         0.322095
 C        -1.773015         1.331232        -1.144307
 H        -3.045391        -1.240439        -3.100829
 H        -3.765058         0.483024        -3.412356
 H        -1.919592         0.020504        -3.699255
 H        -3.354103        -0.385902         0.583204
 H        -3.921918        -1.372624        -0.617792
 H        -1.860153        -2.189045        -1.374722
 H        -1.908070         0.846039         1.027585
 H        -0.565253         2.078958         0.534837
 H        -2.463797         2.105450        -1.148447
 H        -0.950077         1.592553        -1.912967
