19
Iteration:  3066
 C        -3.500113        -0.162629        -2.701263
 C        -2.482398        -0.039299        -1.526975
 C        -2.700961        -0.845905        -0.259564
 C        -1.613586        -1.252002        -1.250874
 O        -0.211403        -0.932855        -0.792784
 C        -0.088430         0.047864         0.154692
 O         0.563518        -0.082952         1.204156
 C        -0.632280         1.357807        -0.312480
 C        -1.748431         1.261591        -1.405378
 H        -3.447926        -1.169404        -3.151814
 H        -4.545940         0.020672        -2.323902
 H        -3.298692         0.507819        -3.457891
 H        -2.328449        -0.525315         0.684710
 H        -3.620514        -1.385610        -0.034262
 H        -1.559052        -2.236805        -1.806272
 H        -0.985549         1.693159         0.642386
 H         0.193566         1.959293        -0.836895
 H        -2.714645         2.086174        -1.133461
 H        -1.357142         1.480337        -2.388870
