19
Iteration:  2883
 C        -2.888150        -0.139919        -2.976889
 C        -2.422504        -0.042148        -1.549300
 C        -3.150008        -0.877341        -0.495640
 C        -1.758853        -1.270880        -0.958379
 O        -0.647425        -1.168680        -0.098241
 C         0.040562         0.140547         0.013307
 O         1.217026         0.146881         0.189785
 C        -1.017575         1.241989         0.159031
 C        -1.853326         1.324349        -1.081419
 H        -2.785620        -1.219281        -3.336163
 H        -3.950272         0.189368        -3.176818
 H        -2.311401         0.495494        -3.659675
 H        -3.218279        -0.508731         0.544202
 H        -3.929118        -1.503710        -0.866895
 H        -1.586173        -2.076690        -1.786797
 H        -1.543628         1.032403         1.060273
 H        -0.468887         2.131143         0.519993
 H        -2.710075         2.212232        -0.894427
 H        -1.233035         1.663934        -2.049229
