19
Iteration:   686charge 0 multiplicity 1
 C        -3.116174        -0.060394        -2.910765
 C        -2.476078         0.000758        -1.529511
 C        -2.973556        -1.040839        -0.419051
 C        -1.651281        -1.212465        -1.066727
 O        -0.456240        -1.187421        -0.320856
 C        -0.019035         0.056869         0.124175
 O         0.999154        -0.041376         0.800946
 C        -0.631783         1.438908        -0.493846
 C        -2.137034         1.377972        -1.027212
 H        -3.312758        -1.076351        -3.271093
 H        -4.167716         0.416957        -2.993828
 H        -2.496814         0.689604        -3.583347
 H        -2.932291        -0.575370         0.660883
 H        -3.906058        -1.705572        -0.634105
 H        -1.656120        -1.901946        -1.892557
 H        -0.353118         2.241317         0.219573
 H         0.036787         1.509110        -1.200131
 H        -2.841474         1.667605        -0.176449
 H        -2.218523         2.241475        -1.774640
