19
Iteration:   409
 C        -3.235924        -0.049208        -2.866534
 C        -2.490289        -0.120201        -1.540011
 C        -3.007598        -1.002414        -0.365642
 C        -1.689312        -1.228082        -1.168606
 O        -0.505298        -1.061956        -0.391482
 C         0.020758         0.086595         0.087242
 O         0.996332         0.067891         0.807299
 C        -0.647242         1.356611        -0.269963
 C        -1.891819         1.230503        -1.162236
 H        -3.781650        -0.941737        -3.147309
 H        -3.949764         0.727485        -2.823934
 H        -2.439355         0.334741        -3.559590
 H        -2.977843        -0.587653         0.630748
 H        -3.889270        -1.607927        -0.721051
 H        -1.666253        -2.168293        -1.701625
 H        -0.834559         1.889193         0.801600
 H         0.131409         1.929488        -0.743638
 H        -2.649366         1.853524        -0.736491
 H        -1.724757         1.771991        -2.067267
