19
Iteration:  1309charge 0 multiplicity 1
 C        -3.038005         0.106327        -2.815270
 C        -2.472265        -0.070076        -1.427959
 C        -3.105710        -1.204015        -0.557641
 C        -1.599674        -1.301624        -1.151669
 O        -0.465161        -1.159701        -0.234023
 C         0.034393         0.155032         0.009039
 O         0.824232         0.221283         0.873033
 C        -0.525653         1.252474        -0.756811
 C        -2.107732         1.293480        -0.761025
 H        -3.280360        -0.807598        -3.277883
 H        -3.887293         0.805213        -2.781575
 H        -2.257301         0.610607        -3.506078
 H        -3.112966        -1.186460         0.525318
 H        -3.890052        -1.743730        -1.034000
 H        -1.365225        -1.968250        -1.928661
 H        -0.125818         2.348268        -0.413126
 H        -0.312377         1.213964        -1.942728
 H        -2.519129         1.398022         0.202366
 H        -2.446934         2.150420        -1.362740
