19
Iteration:   168charge 0 multiplicity 1
 C        -2.905119        -0.072885        -2.962515
 C        -2.453897        -0.024553        -1.543869
 C        -3.053866        -0.914908        -0.433837
 C        -1.721565        -1.236689        -0.992829
 O        -0.677711        -1.175988        -0.078878
 C         0.039416         0.050046        -0.046073
 O         1.166753         0.107868         0.344138
 C        -0.833194         1.228509        -0.120530
 C        -2.011103         1.362494        -1.026599
 H        -2.978951        -1.158306        -3.402790
 H        -3.799276         0.497836        -3.114118
 H        -2.136297         0.519350        -3.553506
 H        -3.276555        -0.295050         0.596106
 H        -3.892231        -1.610205        -0.787242
 H        -1.676293        -2.035730        -1.813811
 H        -1.196093         1.175709         0.922488
 H        -0.088464         2.097019        -0.092190
 H        -2.873750         1.707816        -0.422678
 H        -1.856903         2.069291        -1.911596
