19
Iteration:   458charge 0 multiplicity 1
 C        -3.194869        -0.069289        -2.946359
 C        -2.518507         0.018409        -1.493653
 C        -3.022261        -0.971913        -0.519280
 C        -1.645777        -1.209778        -1.089641
 O        -0.564427        -1.147360        -0.166050
 C         0.012878         0.043939         0.103634
 O         1.138440         0.096160         0.578129
 C        -0.778379         1.281439        -0.145330
 C        -1.924506         1.281974        -1.146404
 H        -3.869141        -0.981201        -3.078373
 H        -3.930389         0.804633        -3.069187
 H        -2.409648        -0.179548        -3.707036
 H        -2.882674        -0.743569         0.558924
 H        -3.856523        -1.677842        -0.731357
 H        -1.336567        -1.762034        -2.023130
 H        -1.133111         1.610398         0.888451
 H         0.072931         2.119053        -0.480652
 H        -2.654019         2.055833        -0.775001
 H        -1.550418         1.658767        -2.172395
