19
Iteration:  1488charge 0 multiplicity 1
 C        -2.996449         0.058418        -2.981428
 C        -2.525019        -0.111054        -1.488025
 C        -3.030048        -1.247373        -0.578154
 C        -1.655277        -1.289124        -1.038853
 O        -0.672839        -1.088037        -0.107746
 C         0.034004         0.121499         0.004652
 O         1.166439         0.176515         0.548170
 C        -0.699366         1.380067        -0.253178
 C        -2.097334         1.313033        -0.952902
 H        -3.493368        -0.873642        -3.276889
 H        -3.626595         0.895940        -3.043574
 H        -2.165103         0.065414        -3.625258
 H        -3.339853        -1.129002         0.459767
 H        -3.770107        -2.015672        -0.941659
 H        -1.296983        -2.034759        -1.761039
 H        -0.760125         1.895858         0.694510
 H        -0.014249         2.057430        -0.836134
 H        -2.838399         1.639743        -0.286564
 H        -2.182986         1.965275        -1.816846
