19
Iteration:   741charge 0 multiplicity 1
 C        -3.303983         0.156118        -2.793462
 C        -2.553668        -0.025295        -1.441116
 C        -3.026982        -1.237681        -0.607955
 C        -1.544578        -1.276821        -1.225231
 O        -0.501773        -1.104141        -0.238373
 C         0.054507         0.111655         0.052014
 O         0.779134         0.182705         1.049079
 C        -0.393549         1.259014        -0.892428
 C        -1.950263         1.288565        -0.791534
 H        -3.654060        -0.819687        -3.155388
 H        -4.158148         0.868297        -2.752988
 H        -2.554235         0.296537        -3.675653
 H        -3.070421        -1.164532         0.589178
 H        -3.751117        -1.997590        -1.089396
 H        -1.402863        -2.028498        -1.945675
 H         0.150348         2.136348        -0.477284
 H        -0.066716         1.030534        -1.806155
 H        -2.289308         1.488931         0.292330
 H        -2.249416         2.216753        -1.382956
