19
Iteration:   563
 C        -3.054538        -0.076090        -2.863114
 C        -2.388561        -0.058401        -1.516719
 C        -3.132935        -0.833932        -0.535945
 C        -1.734410        -1.238345        -0.930184
 O        -0.513039        -1.161745        -0.263944
 C        -0.013596         0.102842         0.098239
 O         1.158389         0.127579         0.287853
 C        -1.037792         1.309493         0.132096
 C        -1.769753         1.191996        -1.181093
 H        -3.493510        -1.077139        -3.150950
 H        -3.769539         0.756760        -2.855268
 H        -2.344186         0.324602        -3.721138
 H        -3.229057        -0.571714         0.488288
 H        -3.845875        -1.550147        -0.770536
 H        -1.739584        -2.144700        -1.689623
 H        -1.623928         1.043535         1.001524
 H        -0.644087         2.167104         0.271745
 H        -2.330224         2.160906        -1.363349
 H        -0.944998         1.253448        -1.885674
