19
Iteration:  3915
 C        -3.152150         0.277141        -2.762710
 C        -2.502470         0.011818        -1.386985
 C        -3.037180        -1.298250        -0.659430
 C        -1.620200        -1.228599        -1.069281
 O        -0.542577        -1.271077        -0.189078
 C         0.066647         0.013513        -0.019978
 O         0.735481         0.264388         0.931615
 C        -0.386148         1.244852        -0.994438
 C        -1.986756         1.312542        -0.668130
 H        -3.440127        -0.767159        -3.183592
 H        -4.083856         0.992205        -2.740183
 H        -2.375317         0.683204        -3.529266
 H        -3.240959        -1.187402         0.431831
 H        -3.737423        -1.977233        -1.287904
 H        -1.351309        -1.703725        -2.017396
 H         0.281007         2.063741        -0.860770
 H        -0.394137         1.027889        -1.993471
 H        -2.182136         1.298179         0.350900
 H        -2.375751         2.265916        -1.145544
