19
Iteration:  3222
 C        -2.731517        -0.160829        -2.911585
 C        -2.296247        -0.036451        -1.526348
 C        -3.184134        -0.779501        -0.482737
 C        -1.800126        -1.223710        -0.866123
 O        -0.557802        -1.249952        -0.135011
 C        -0.045373         0.019058         0.054508
 O         1.122084         0.242642        -0.043351
 C        -1.177838         1.162063         0.244215
 C        -1.797161         1.349574        -1.098092
 H        -2.971133        -1.044927        -3.452210
 H        -3.689382         0.410840        -2.865556
 H        -2.018760         0.299952        -3.496605
 H        -3.167798        -0.138701         0.407774
 H        -4.060514        -1.420113        -0.893973
 H        -1.750557        -2.081186        -1.649343
 H        -1.872791         0.919726         1.035426
 H        -0.619291         2.058808         0.679330
 H        -2.663870         2.044594        -1.046295
 H        -1.046017         1.690002        -1.691863
