19
Iteration:  2985
 C        -3.543376        -0.163523        -2.693688
 C        -2.500816         0.006553        -1.516327
 C        -2.715754        -0.889936        -0.344276
 C        -1.491464        -1.271595        -1.218659
 O        -0.268518        -0.984214        -0.692934
 C        -0.153361         0.055518         0.204978
 O         0.729253        -0.085577         1.056580
 C        -0.866754         1.360249        -0.184934
 C        -1.660805         1.289004        -1.441923
 H        -4.218514        -0.995176        -2.513156
 H        -4.126364         0.753403        -2.765782
 H        -3.015815        -0.245350        -3.730827
 H        -2.252655        -0.523037         0.635735
 H        -3.645750        -1.429393        -0.196682
 H        -1.360921        -1.979112        -1.964415
 H        -1.282258         1.911744         0.748397
 H        -0.024352         1.903530        -0.504237
 H        -2.382324         2.360236        -1.560821
 H        -1.099907         1.305867        -2.472063
