19
Iteration:  1638charge 0 multiplicity 1
 C        -3.133762         0.130313        -2.749421
 C        -2.494370        -0.064689        -1.371412
 C        -2.995671        -1.334347        -0.662207
 C        -1.574841        -1.252472        -1.197214
 O        -0.549470        -1.129613        -0.209012
 C        -0.020930         0.155057         0.034036
 O         0.741628         0.266311         1.007532
 C        -0.428496         1.309705        -1.013849
 C        -1.979874         1.233479        -0.695343
 H        -3.830549        -0.686326        -3.084070
 H        -3.759865         1.060980        -2.784860
 H        -2.315187         0.411119        -3.533513
 H        -3.112470        -1.259276         0.444696
 H        -3.697334        -1.854965        -1.299816
 H        -1.219532        -1.988769        -1.896236
 H         0.040179         2.319951        -0.815808
 H        -0.224426         1.150062        -1.998143
 H        -2.184566         1.043911         0.452510
 H        -2.468996         2.081457        -1.223221
