19
Iteration:   681charge 0 multiplicity 1
 C        -3.107387        -0.019921        -2.931284
 C        -2.474777        -0.017334        -1.493470
 C        -2.996233        -1.019365        -0.389800
 C        -1.698435        -1.175985        -1.074727
 O        -0.458895        -1.187435        -0.342575
 C         0.006042         0.051045         0.135955
 O         1.028995        -0.023914         0.789301
 C        -0.659941         1.373624        -0.446513
 C        -2.123286         1.369809        -1.059861
 H        -3.028049        -1.116174        -3.136402
 H        -4.071045         0.372952        -3.147677
 H        -2.537068         0.544969        -3.596655
 H        -3.048956        -0.624743         0.555977
 H        -3.821288        -1.632311        -0.523370
 H        -1.583119        -2.004330        -1.885651
 H        -0.564808         2.204414         0.254452
 H         0.099691         1.728681        -1.402527
 H        -2.855380         1.582226        -0.243013
 H        -2.284790         2.161518        -1.744727
