19
Iteration:  1563
 C        -3.019116        -0.120037        -2.929887
 C        -2.512353        -0.048033        -1.509400
 C        -3.039376        -1.120917        -0.492065
 C        -1.705985        -1.166893        -1.100244
 O        -0.518694        -1.129228        -0.324793
 C         0.056654         0.116427         0.050374
 O         1.053207         0.091054         0.800418
 C        -0.625575         1.403456        -0.413995
 C        -2.150770         1.295847        -0.895935
 H        -2.753443        -1.083739        -3.445504
 H        -4.098535         0.048008        -2.942217
 H        -2.582574         0.752421        -3.521617
 H        -3.414671        -0.649322         0.436585
 H        -3.770010        -1.831981        -0.916624
 H        -1.572584        -1.900901        -1.895046
 H        -0.592845         2.282694         0.346288
 H         0.100556         1.762400        -1.320414
 H        -2.820294         1.480089        -0.006187
 H        -2.310672         2.015992        -1.688809
