19
Iteration:    18
 C        -3.055952        -0.201283        -2.983837
 C        -2.560957        -0.030980        -1.546817
 C        -3.171275        -0.817443        -0.353935
 C        -1.764844        -1.166964        -0.917884
 O        -0.431811        -1.085794        -0.420087
 C         0.055662         0.079928         0.084391
 O         1.181806         0.060431         0.468360
 C        -0.990920         1.249299         0.128204
 C        -1.774594         1.294403        -1.245458
 H        -3.335406        -1.244875        -3.213946
 H        -4.002869         0.363979        -3.256711
 H        -2.298668         0.258991        -3.671461
 H        -3.451508        -0.376380         0.653221
 H        -3.748336        -1.711660        -0.607580
 H        -1.860387        -2.145495        -1.406298
 H        -1.608898         1.082330         1.052936
 H        -0.462405         2.217960         0.420272
 H        -2.281336         2.280643        -1.502355
 H        -1.011719         1.385434        -2.069671
