19
Iteration:  3954
 C        -3.061161         0.082428        -2.878187
 C        -2.517668        -0.041425        -1.481360
 C        -3.047798        -1.089420        -0.475865
 C        -1.696021        -1.262794        -1.155836
 O        -0.602804        -1.070047        -0.311137
 C         0.044392         0.152502         0.073803
 O         0.963691         0.000844         0.831110
 C        -0.486063         1.348760        -0.626152
 C        -2.054503         1.242735        -0.807457
 H        -2.891947        -0.833717        -3.372316
 H        -4.113057         0.310482        -2.936341
 H        -2.644048         0.912953        -3.412845
 H        -2.927652        -0.812083         0.543523
 H        -3.834455        -1.753124        -0.711679
 H        -1.520350        -2.047123        -1.923888
 H        -0.047274         2.285731        -0.167789
 H        -0.096542         1.142008        -1.732098
 H        -2.605902         1.283977         0.214287
 H        -2.495287         2.009950        -1.444555
