19
Iteration:   557charge 0 multiplicity 1
 C        -3.049611        -0.054710        -2.899756
 C        -2.417647        -0.082623        -1.561342
 C        -3.091101        -0.789909        -0.461596
 C        -1.746675        -1.271252        -0.919409
 O        -0.520853        -1.162194        -0.311045
 C        -0.037640         0.095746         0.124863
 O         1.162941         0.161842         0.278307
 C        -1.061221         1.239995         0.167115
 C        -1.740286         1.212770        -1.209608
 H        -3.319447        -1.015360        -3.323064
 H        -3.891253         0.664701        -2.805045
 H        -2.311933         0.188567        -3.602307
 H        -3.205734        -0.361196         0.566391
 H        -3.921639        -1.563754        -0.704326
 H        -1.680641        -2.101679        -1.540118
 H        -1.796637         1.029291         1.029163
 H        -0.380193         2.284988         0.454367
 H        -2.405984         2.044671        -1.386691
 H        -0.849645         1.222225        -1.904934
