19
Iteration:  1269
 C        -3.118884        -0.096696        -2.986698
 C        -2.536385        -0.033435        -1.487075
 C        -2.964520        -1.057879        -0.378336
 C        -1.613099        -1.187377        -1.121439
 O        -0.408390        -1.080390        -0.438356
 C         0.080710         0.120010         0.041249
 O         0.851199         0.010280         0.943370
 C        -0.641265         1.364693        -0.556989
 C        -2.109800         1.322180        -0.897818
 H        -3.087513        -1.197937        -3.306510
 H        -4.201662         0.099430        -2.996806
 H        -2.561602         0.667868        -3.523643
 H        -2.891860        -0.529710         0.666538
 H        -3.773073        -1.833678        -0.597148
 H        -1.570985        -2.005598        -1.820942
 H        -0.379031         2.029865         0.169282
 H        -0.045873         1.459105        -1.380639
 H        -2.697573         1.602541         0.094659
 H        -2.261745         2.236957        -1.581418
