19
Iteration:  3396
 C        -3.015461         0.095291        -2.911462
 C        -2.535695        -0.000647        -1.375815
 C        -3.029523        -1.153584        -0.569358
 C        -1.669534        -1.178183        -1.161772
 O        -0.543865        -1.191232        -0.255366
 C         0.029650         0.140580         0.127022
 O         0.970214         0.027497         0.810976
 C        -0.527436         1.287077        -0.689119
 C        -2.150197         1.351691        -0.752006
 H        -3.019824        -0.906015        -3.372184
 H        -4.054741         0.542102        -3.041291
 H        -2.410727         0.745089        -3.503909
 H        -3.186992        -1.033654         0.570315
 H        -3.733616        -1.902597        -0.946061
 H        -1.402792        -1.820616        -2.072659
 H        -0.080655         2.217363        -0.396241
 H        -0.287921         0.977885        -1.724010
 H        -2.623224         1.575083         0.117800
 H        -2.469298         2.300885        -1.362110
