19
Iteration:  4380charge 0 multiplicity 1
 C        -3.366208        -0.010812        -2.727192
 C        -2.354265        -0.058350        -1.555151
 C        -2.799676        -0.860643        -0.287052
 C        -1.655569        -1.313721        -1.078994
 O        -0.335352        -1.053690        -0.677801
 C        -0.081867         0.024260         0.121036
 O         0.912288        -0.093176         0.821767
 C        -0.993406         1.334327        -0.037889
 C        -1.726351         1.330969        -1.432911
 H        -4.204631        -0.645040        -2.816251
 H        -3.811540         0.970105        -2.759749
 H        -2.778070        -0.128387        -3.639506
 H        -2.667500        -0.460531         0.731618
 H        -3.850189        -1.100552        -0.334081
 H        -1.792253        -2.280293        -1.589351
 H        -1.682351         1.214895         0.728528
 H        -0.380998         2.247663         0.112514
 H        -2.520271         2.109865        -1.373370
 H        -1.029205         1.646296        -2.240745
