19
Iteration:  1106charge 0 multiplicity 1
 C        -3.132031        -0.158387        -2.919583
 C        -2.476148        -0.087473        -1.581797
 C        -3.069566        -0.859849        -0.424879
 C        -1.762236        -1.273891        -1.081266
 O        -0.397550        -1.099555        -0.462181
 C         0.033576         0.071060         0.066700
 O         1.117748         0.138231         0.643031
 C        -0.958549         1.253665         0.060951
 C        -1.815218         1.362844        -1.154660
 H        -3.436277        -1.223241        -3.108125
 H        -4.159696         0.179342        -2.871476
 H        -2.768686         0.323561        -3.763363
 H        -2.896139        -0.535871         0.592273
 H        -3.950903        -1.566972        -0.546416
 H        -1.792145        -2.220740        -1.519012
 H        -1.471315         1.442528         0.975577
 H        -0.205863         2.262767        -0.005162
 H        -2.678018         1.937875        -1.135535
 H        -1.215038         1.674753        -1.951146
