19
Iteration:  3886
 C        -3.079969         0.403924        -2.650734
 C        -2.482307        -0.112790        -1.424929
 C        -3.063459        -1.298690        -0.586970
 C        -1.611028        -1.229150        -1.209151
 O        -0.639149        -1.110234        -0.228517
 C        -0.004302         0.094198         0.015074
 O         0.731287         0.314086         0.964576
 C        -0.365863         1.131273        -0.987748
 C        -1.920739         1.094767        -0.753978
 H        -3.684985        -0.391460        -3.022649
 H        -3.657292         1.245854        -2.482654
 H        -2.369331         0.735015        -3.389785
 H        -2.776049        -1.276564         0.484496
 H        -3.819977        -2.025664        -0.969623
 H        -1.383905        -1.820141        -2.077733
 H         0.092244         2.149124        -0.946758
 H        -0.257865         0.659848        -2.041301
 H        -2.197332         1.112974         0.352938
 H        -2.325494         1.937507        -1.332851
