19
Iteration:  2032charge 0 multiplicity 1
 C        -3.273506        -0.031411        -2.791478
 C        -2.465587        -0.110122        -1.577442
 C        -2.924360        -1.038749        -0.402957
 C        -1.622730        -1.272448        -1.135037
 O        -0.352873        -1.141305        -0.469950
 C        -0.010692         0.095947         0.122574
 O         0.852836         0.077537         0.960798
 C        -0.626585         1.390712        -0.414938
 C        -2.035984         1.352374        -1.126017
 H        -3.548844        -1.088080        -3.167362
 H        -4.167126         0.644279        -2.825954
 H        -2.583571         0.361611        -3.689166
 H        -2.951915        -0.581122         0.584276
 H        -3.699769        -1.831600        -0.570851
 H        -1.434464        -2.083415        -1.852615
 H        -0.600938         2.142443         0.372661
 H         0.084621         1.606808        -1.180217
 H        -2.846550         1.723980        -0.420846
 H        -1.959886         2.071796        -2.038289
