19
Iteration:  1021
 C        -2.887236        -0.038276        -3.021403
 C        -2.444200        -0.055103        -1.476918
 C        -3.142753        -1.133693        -0.623359
 C        -1.706843        -1.271764        -0.985909
 O        -0.719472        -1.072033        -0.004977
 C         0.080691         0.074478         0.042621
 O         1.282747         0.122982         0.263934
 C        -0.807687         1.372882        -0.058447
 C        -2.135122         1.326305        -0.931895
 H        -3.261774        -1.141865        -3.191250
 H        -3.716625         0.683604        -3.111452
 H        -2.047684         0.008450        -3.691440
 H        -3.481265        -0.855990         0.388309
 H        -3.881885        -1.781241        -1.250299
 H        -1.346888        -1.970462        -1.663432
 H        -0.945174         1.752594         0.989579
 H        -0.129671         2.022126        -0.549771
 H        -3.024644         1.717936        -0.367063
 H        -1.880368         2.038924        -1.877808
