19
Iteration:  1145
 C        -3.271876        -0.171890        -2.882798
 C        -2.523654         0.007285        -1.520323
 C        -2.899813        -0.816999        -0.243765
 C        -1.678761        -1.186459        -1.110280
 O        -0.333516        -1.001103        -0.663031
 C        -0.037013         0.044797         0.124281
 O         1.018716         0.085418         0.769358
 C        -1.091489         1.183343         0.057222
 C        -1.702592         1.236677        -1.361534
 H        -3.540272        -1.194351        -2.915997
 H        -4.139982         0.524380        -2.892232
 H        -2.577758         0.063420        -3.808397
 H        -2.717429        -0.488475         0.718479
 H        -3.652865        -1.548352        -0.232304
 H        -1.597043        -2.251242        -1.542952
 H        -1.915532         1.016505         0.782437
 H        -0.541641         1.974185         0.271205
 H        -2.183506         2.299912        -1.505537
 H        -0.854326         1.287199        -2.184037
