19
Iteration:  1455charge 0 multiplicity 1
 C        -2.855764        -0.082121        -2.975960
 C        -2.491758        -0.037982        -1.491691
 C        -3.142510        -1.088778        -0.609474
 C        -1.653428        -1.289329        -0.997245
 O        -0.580753        -1.118685        -0.190492
 C         0.064077         0.108018         0.044362
 O         1.175132         0.154959         0.504794
 C        -0.760651         1.409061        -0.288840
 C        -2.239307         1.288364        -0.798403
 H        -3.256046        -1.084149        -3.178077
 H        -3.652921         0.544601        -3.305826
 H        -2.004473         0.240711        -3.537021
 H        -3.334323        -0.794202         0.464530
 H        -3.858977        -1.754780        -1.253935
 H        -1.528705        -2.080822        -1.773230
 H        -0.806160         2.077189         0.540473
 H         0.086008         1.645348        -1.003143
 H        -2.889229         1.408293         0.050600
 H        -2.533642         2.118720        -1.469388
