19
Iteration:  1120
 C        -3.203713        -0.191270        -2.894692
 C        -2.423168        -0.054966        -1.561778
 C        -2.997078        -0.795434        -0.339070
 C        -1.683138        -1.238904        -1.032687
 O        -0.371784        -1.052912        -0.602094
 C        -0.026297         0.083702         0.128007
 O         1.059740         0.066188         0.643919
 C        -1.024058         1.265734         0.105806
 C        -1.814594         1.261394        -1.268075
 H        -3.243720        -1.291075        -3.170713
 H        -4.147340         0.364578        -2.793555
 H        -2.617167         0.267072        -3.683579
 H        -3.016781        -0.201911         0.649428
 H        -3.880235        -1.474170        -0.459082
 H        -1.658984        -2.160234        -1.607350
 H        -1.734189         1.066107         0.993261
 H        -0.354590         2.188518         0.272007
 H        -2.447261         2.129152        -1.267426
 H        -1.058900         1.523569        -2.108681
