19
Iteration:  1460charge 0 multiplicity 1
 C        -2.876476        -0.080693        -2.956854
 C        -2.504866        -0.079600        -1.464736
 C        -3.161491        -1.089953        -0.633010
 C        -1.658915        -1.278239        -1.028459
 O        -0.568991        -1.110474        -0.179318
 C         0.064758         0.131167         0.073360
 O         1.154733         0.164905         0.493888
 C        -0.741931         1.373798        -0.296421
 C        -2.174682         1.271475        -0.825362
 H        -3.264912        -1.091003        -3.233962
 H        -3.692975         0.715241        -3.138254
 H        -1.928783         0.090252        -3.548837
 H        -3.502732        -0.894352         0.355726
 H        -3.952277        -1.583883        -1.089284
 H        -1.349367        -1.955211        -1.818524
 H        -0.723884         2.003711         0.650937
 H        -0.107975         1.950697        -0.984436
 H        -2.945275         1.439012         0.042833
 H        -2.479880         2.064574        -1.535892
