19
Iteration:  2084charge 0 multiplicity 1
 C        -3.278796        -0.271027        -2.811884
 C        -2.446748        -0.030490        -1.559060
 C        -2.836286        -0.911884        -0.282514
 C        -1.638896        -1.198248        -1.151728
 O        -0.301061        -1.019261        -0.698513
 C        -0.046471         0.065702         0.131937
 O         0.734735        -0.094161         1.019716
 C        -0.664753         1.415230        -0.356966
 C        -1.979558         1.409989        -1.130930
 H        -3.346523        -1.256082        -3.117583
 H        -4.306947         0.095711        -2.667007
 H        -2.908392         0.158319        -3.694617
 H        -2.603650        -0.559429         0.718004
 H        -3.742156        -1.499320        -0.503182
 H        -1.509712        -2.137529        -1.772232
 H        -0.862325         2.027794         0.554524
 H         0.281244         1.892403        -0.883267
 H        -2.726663         1.944525        -0.617254
 H        -1.740604         1.980661        -2.068908
