19
Iteration:  1250charge 0 multiplicity 1
 C        -3.164894        -0.123197        -2.805093
 C        -2.491421        -0.034835        -1.528699
 C        -2.997570        -1.014662        -0.467994
 C        -1.643974        -1.277437        -1.118819
 O        -0.367418        -1.100182        -0.525750
 C        -0.018707         0.122574         0.169022
 O         0.885076         0.014046         0.920431
 C        -0.574529         1.453430        -0.430281
 C        -2.087451         1.346825        -1.019047
 H        -3.233230        -1.216539        -3.245552
 H        -4.257798         0.065762        -2.854069
 H        -2.688283         0.496943        -3.521727
 H        -2.941397        -0.756620         0.636958
 H        -3.766616        -1.760191        -0.803787
 H        -1.577154        -2.169509        -1.843417
 H        -0.478864         2.245502         0.339250
 H         0.221680         1.769450        -1.309703
 H        -2.890071         1.614138        -0.305320
 H        -2.149982         2.003329        -1.836658
