19
Iteration:  4207charge 0 multiplicity 1
 C        -3.211743        -0.119752        -2.889704
 C        -2.485962         0.039072        -1.504345
 C        -2.990945        -0.896886        -0.405574
 C        -1.695285        -1.216112        -1.146594
 O        -0.494919        -1.174117        -0.400308
 C         0.001657        -0.025814         0.137980
 O         1.076410         0.128259         0.664129
 C        -0.845183         1.221271        -0.144329
 C        -1.842184         1.351422        -1.131055
 H        -3.959157        -0.957546        -2.949370
 H        -3.631221         0.900800        -3.191808
 H        -2.460148        -0.076775        -3.715639
 H        -2.871014        -0.473066         0.600498
 H        -3.834447        -1.585911        -0.612530
 H        -1.639417        -1.939911        -1.920019
 H        -1.271560         1.386373         0.816992
 H        -0.003291         2.055610        -0.287310
 H        -2.598815         1.956769        -0.776537
 H        -1.420347         1.810514        -2.028766
