19
Iteration:  4329charge 0 multiplicity 1
 C        -3.553081        -0.089263        -2.725148
 C        -2.532650         0.001739        -1.562221
 C        -2.809071        -0.855579        -0.328785
 C        -1.635193        -1.233039        -1.298561
 O        -0.303909        -1.018202        -0.675585
 C        -0.081073        -0.003697         0.228176
 O         0.871562        -0.129024         1.051285
 C        -0.734223         1.390334        -0.146074
 C        -1.701264         1.319823        -1.408178
 H        -3.719615        -1.236418        -3.007110
 H        -4.615685         0.300565        -2.492213
 H        -3.166002         0.340640        -3.662549
 H        -2.436154        -0.611205         0.676508
 H        -3.572643        -1.579431        -0.165858
 H        -1.731697        -2.163995        -1.915526
 H        -1.285175         1.870700         0.703500
 H         0.158014         2.012487        -0.488342
 H        -2.291277         2.189744        -1.237599
 H        -1.084693         1.452290        -2.378331
