19
Iteration:  4125
 C        -3.042579        -0.089753        -3.013023
 C        -2.473779         0.058824        -1.551682
 C        -3.149838        -0.772590        -0.400522
 C        -1.786122        -1.203271        -1.011729
 O        -0.462190        -1.220208        -0.239045
 C         0.008684         0.068764         0.036896
 O         1.184925         0.169943         0.264301
 C        -1.079067         1.109565         0.244467
 C        -1.712529         1.294289        -1.174436
 H        -3.101093        -1.133459        -3.362646
 H        -4.034240         0.280397        -2.990242
 H        -2.419551         0.414507        -3.747332
 H        -2.975094        -0.495662         0.613895
 H        -4.010601        -1.454369        -0.431341
 H        -1.944049        -2.207148        -1.478218
 H        -1.701766         0.773586         1.121088
 H        -0.578961         1.916397         0.569332
 H        -2.340800         2.216767        -1.267871
 H        -0.852160         1.493730        -1.849478
