19
Iteration:  3733charge 0 multiplicity 1
 C        -3.015719        -0.072653        -2.943005
 C        -2.494666        -0.003051        -1.471013
 C        -3.146249        -0.914198        -0.471566
 C        -1.648065        -1.266096        -1.118873
 O        -0.595968        -1.165373        -0.138033
 C         0.058213         0.095176         0.021958
 O         1.229484         0.026206         0.351096
 C        -0.950391         1.285881         0.061188
 C        -1.898956         1.362068        -1.133496
 H        -3.778921        -0.830933        -3.245963
 H        -3.634677         0.912102        -3.165168
 H        -2.119197        -0.162375        -3.591720
 H        -3.134428        -0.600066         0.606139
 H        -4.015414        -1.525740        -0.747564
 H        -1.722844        -2.096355        -1.751713
 H        -1.466100         1.001903         0.977047
 H        -0.350182         2.296674         0.281093
 H        -2.671996         2.195041        -0.986361
 H        -1.309410         1.771852        -1.977904
