19
Iteration:  4910charge 0 multiplicity 1
 C        -2.834463        -0.051516        -2.945234
 C        -2.496439         0.056398        -1.541540
 C        -3.150990        -0.821294        -0.479535
 C        -1.784555        -1.207847        -0.904483
 O        -0.594142        -1.207061        -0.061874
 C         0.023846         0.031994         0.106186
 O         1.202312         0.171980         0.055452
 C        -1.055941         1.122691         0.183153
 C        -1.810649         1.271612        -1.226128
 H        -3.444723        -0.861608        -3.198169
 H        -3.342150         0.877856        -3.102089
 H        -1.954026        -0.062681        -3.567722
 H        -3.250328        -0.449841         0.553229
 H        -3.865860        -1.608912        -0.754774
 H        -1.843328        -2.142071        -1.380576
 H        -1.840632         0.794749         0.955411
 H        -0.614474         2.068843         0.513964
 H        -2.490857         2.221273        -1.170696
 H        -0.995285         1.486219        -1.912688
