19
Iteration:  4395charge 0 multiplicity 1
 C        -3.307167         0.002191        -2.865050
 C        -2.454797        -0.034360        -1.617437
 C        -2.818936        -0.798972        -0.270165
 C        -1.700331        -1.276450        -1.161875
 O        -0.407060        -1.113825        -0.574411
 C        -0.055598        -0.005582         0.183726
 O         0.977775         0.004281         0.750382
 C        -0.942092         1.271390        -0.016650
 C        -1.766091         1.302687        -1.278465
 H        -4.007887        -0.906367        -2.649340
 H        -3.903165         0.982224        -2.911007
 H        -2.814813        -0.193911        -3.833507
 H        -2.485129        -0.403878         0.672450
 H        -3.569948        -1.579597        -0.219144
 H        -1.674925        -2.210198        -1.782422
 H        -1.547442         1.569718         0.860743
 H        -0.126676         2.023318        -0.003042
 H        -2.586634         2.011938        -1.241192
 H        -1.095258         1.511103        -2.251135
