19
Iteration:  1608charge 0 multiplicity 1
 C        -3.005367         0.091570        -2.865315
 C        -2.496496        -0.058038        -1.449453
 C        -2.998071        -1.178932        -0.479315
 C        -1.650359        -1.244963        -1.166039
 O        -0.483714        -1.183798        -0.349069
 C         0.040916         0.060167         0.024421
 O         0.813294         0.284750         0.941955
 C        -0.581000         1.294775        -0.780563
 C        -2.099267         1.252410        -0.755562
 H        -3.234203        -0.912002        -3.359009
 H        -3.869687         0.728245        -2.812532
 H        -2.236996         0.604955        -3.453173
 H        -2.981581        -0.953656         0.561384
 H        -3.764198        -1.851677        -0.668641
 H        -1.559401        -2.105303        -1.825129
 H        -0.225109         2.078967        -0.112000
 H        -0.123809         1.450393        -1.895630
 H        -2.567300         1.240783         0.238032
 H        -2.464986         2.088889        -1.335255
