19
Iteration:  2867charge 0 multiplicity 1
 C        -2.790104        -0.124648        -2.950326
 C        -2.389941        -0.038541        -1.512753
 C        -3.249764        -0.906357        -0.604587
 C        -1.741321        -1.222972        -0.927204
 O        -0.610704        -1.167530        -0.022055
 C        -0.015938         0.015964         0.141581
 O         1.167821         0.226773        -0.003421
 C        -0.944300         1.191537         0.169363
 C        -1.871900         1.339150        -1.071874
 H        -2.783197        -1.164042        -3.185091
 H        -3.811032         0.296761        -2.956943
 H        -2.224644         0.558907        -3.617643
 H        -3.439467        -0.499417         0.395472
 H        -4.062916        -1.504833        -1.137915
 H        -1.686351        -2.145566        -1.390730
 H        -1.665680         1.185641         1.081547
 H        -0.370276         2.129132         0.171443
 H        -2.712482         1.849094        -0.948477
 H        -1.337427         1.883363        -1.790365
