19
Iteration:  3817charge 0 multiplicity 1
 C        -3.103941         0.002036        -2.901786
 C        -2.528067         0.048028        -1.442590
 C        -3.058810        -1.051626        -0.506971
 C        -1.714702        -1.234304        -1.146535
 O        -0.523283        -1.163732        -0.294289
 C        -0.001035         0.099725         0.089956
 O         0.969545         0.011827         0.779517
 C        -0.515133         1.346524        -0.551383
 C        -2.065954         1.325391        -0.823049
 H        -2.757029        -0.966049        -3.295214
 H        -4.077000         0.262824        -3.154661
 H        -2.480635         0.764247        -3.403775
 H        -2.940125        -0.952157         0.607297
 H        -3.857900        -1.714290        -0.876656
 H        -1.459955        -1.931930        -1.971983
 H        -0.124091         2.169110        -0.008459
 H        -0.028778         1.339098        -1.507426
 H        -2.644214         1.523200         0.042086
 H        -2.150311         2.090557        -1.641998
