19
Iteration:   425
 C        -3.193378         0.044552        -2.832493
 C        -2.435702        -0.085401        -1.484608
 C        -3.026419        -1.030380        -0.497563
 C        -1.687731        -1.390037        -1.053829
 O        -0.495728        -1.179449        -0.273128
 C         0.012002         0.110375         0.013900
 O         0.990507         0.082531         0.729729
 C        -0.691710         1.422784        -0.280249
 C        -1.921634         1.305005        -1.162526
 H        -3.891676        -0.820787        -2.916957
 H        -3.796651         1.030085        -2.900928
 H        -2.569885         0.219725        -3.720072
 H        -2.906904        -0.758464         0.568506
 H        -3.861388        -1.683433        -0.696532
 H        -1.407254        -2.145109        -1.854944
 H        -0.962179         1.810988         0.701638
 H         0.083531         2.236716        -0.732667
 H        -2.776902         1.971905        -0.819558
 H        -1.714071         1.743338        -2.205998
