19
Iteration:  1919
 C        -2.711299         0.219995        -2.881308
 C        -2.549522        -0.107710        -1.466032
 C        -3.192452        -1.187790        -0.576079
 C        -1.684507        -1.269385        -0.973867
 O        -0.621042        -1.076827        -0.088561
 C         0.023474         0.101253        -0.074389
 O         0.957649         0.327122         0.660565
 C        -0.603196         1.195667        -0.856365
 C        -2.114267         1.068705        -0.612220
 H        -2.427787        -0.546002        -3.598221
 H        -3.889400         0.311292        -2.960344
 H        -2.169113         1.244137        -3.182773
 H        -3.606549        -0.863022         0.345188
 H        -3.749355        -1.974840        -1.180175
 H        -1.477289        -2.172503        -1.548227
 H        -0.221448         2.082487        -0.314678
 H        -0.294939         1.220804        -1.830628
 H        -2.249463         0.892489         0.456379
 H        -2.551492         2.142744        -0.893161
