19
Iteration:   671
 C        -3.036537        -0.038889        -2.934643
 C        -2.569627        -0.003043        -1.509467
 C        -3.053279        -0.951800        -0.379236
 C        -1.710871        -1.196208        -1.088346
 O        -0.482712        -1.129488        -0.370615
 C         0.043026         0.024895         0.088642
 O         1.056064         0.038750         0.774153
 C        -0.687805         1.292049        -0.404508
 C        -2.073549         1.330054        -0.999509
 H        -3.007000        -1.059115        -3.394117
 H        -4.069948         0.225328        -2.968482
 H        -2.338478         0.412549        -3.585663
 H        -2.975773        -0.571973         0.579765
 H        -3.766048        -1.683278        -0.629466
 H        -1.634955        -2.166567        -1.760937
 H        -0.684775         1.955945         0.442388
 H         0.076662         1.770172        -1.208959
 H        -2.811598         1.724697        -0.198517
 H        -2.121923         1.943910        -1.848944
