19
Iteration:  3562charge 0 multiplicity 1
 C        -3.180742         0.001153        -2.949064
 C        -2.536026         0.001553        -1.532109
 C        -3.006683        -0.986842        -0.451113
 C        -1.692592        -1.174190        -1.172879
 O        -0.483247        -1.069521        -0.356062
 C         0.014196         0.026419         0.212789
 O         1.073793        -0.007615         0.797254
 C        -0.659982         1.236893        -0.405357
 C        -2.035896         1.277781        -0.993059
 H        -3.496839        -0.897306        -3.382121
 H        -3.952718         0.745292        -3.057447
 H        -2.417244         0.397074        -3.566480
 H        -2.868817        -0.497821         0.546416
 H        -3.925263        -1.624683        -0.379046
 H        -1.653430        -2.020059        -1.807954
 H        -0.586105         2.025246         0.466652
 H         0.058559         1.480839        -1.124424
 H        -2.651339         1.644461        -0.241436
 H        -2.005357         1.967978        -1.865426
