19
Iteration:  2030
 C        -3.281976        -0.040815        -2.796703
 C        -2.468161        -0.105420        -1.586208
 C        -2.927531        -1.048274        -0.417446
 C        -1.611367        -1.270904        -1.139965
 O        -0.360465        -1.138839        -0.458173
 C        -0.005919         0.097882         0.125159
 O         0.853326         0.081667         0.953595
 C        -0.626292         1.404807        -0.427455
 C        -2.030591         1.337084        -1.101370
 H        -3.571711        -1.023832        -3.123971
 H        -4.127133         0.694441        -2.799965
 H        -2.601779         0.366245        -3.594840
 H        -3.025149        -0.547216         0.553992
 H        -3.679954        -1.795677        -0.564373
 H        -1.426614        -2.141348        -1.859476
 H        -0.589407         2.129767         0.395625
 H         0.085430         1.548447        -1.146790
 H        -2.823910         1.733068        -0.469333
 H        -1.926148         2.040414        -2.029076
