19
Iteration:  3695charge 0 multiplicity 1
 C        -3.006306        -0.080811        -3.003759
 C        -2.436189        -0.043739        -1.546681
 C        -3.171549        -0.765952        -0.357441
 C        -1.822783        -1.292973        -0.952235
 O        -0.477945        -1.240033        -0.412582
 C        -0.050249         0.043844         0.154173
 O         1.143773         0.216743         0.239407
 C        -1.014102         1.192890         0.241625
 C        -1.666149         1.317207        -1.107503
 H        -3.400493        -1.053878        -3.233648
 H        -3.736238         0.631827        -3.164415
 H        -2.186907         0.121788        -3.683348
 H        -3.379930        -0.375127         0.606752
 H        -3.925120        -1.413915        -0.826544
 H        -1.875296        -2.360931        -1.360981
 H        -1.762593         1.166257         1.088704
 H        -0.433779         2.085200         0.403251
 H        -2.292178         2.187511        -1.166628
 H        -0.871601         1.524147        -1.889678
