19
Iteration:   367charge 0 multiplicity 1
 C        -3.268431        -0.277186        -2.798008
 C        -2.450953         0.017486        -1.536416
 C        -2.925946        -0.748749        -0.332752
 C        -1.613799        -1.134367        -1.189326
 O        -0.357558        -1.149361        -0.557343
 C        -0.002102        -0.008807         0.052546
 O         0.859064        -0.063539         0.917957
 C        -0.739088         1.328648        -0.268576
 C        -1.949665         1.434822        -1.179472
 H        -3.242942        -1.297739        -3.119604
 H        -4.301826        -0.057773        -2.648501
 H        -2.838082         0.265769        -3.678980
 H        -2.771572        -0.403331         0.652866
 H        -3.598096        -1.598009        -0.370131
 H        -1.731416        -2.087858        -1.746612
 H        -1.041905         1.807561         0.823833
 H         0.103250         2.106480        -0.672847
 H        -2.793992         1.913459        -0.737075
 H        -1.629095         1.997749        -2.097383
