19
Iteration:   303
 C        -3.526445         0.001884        -2.704826
 C        -2.508738        -0.082889        -1.513847
 C        -2.871591        -0.935881        -0.286253
 C        -1.614179        -1.249576        -1.210722
 O        -0.327904        -0.983538        -0.640013
 C         0.000394         0.105175         0.158653
 O         0.884318         0.041051         0.982155
 C        -0.897462         1.241595        -0.158062
 C        -1.599875         1.200494        -1.488297
 H        -4.128051        -0.859038        -2.897233
 H        -4.125625         0.954863        -2.531776
 H        -2.945034         0.018331        -3.659990
 H        -2.750359        -0.763076         0.739266
 H        -3.719851        -1.509751        -0.545626
 H        -1.401778        -2.153803        -1.790048
 H        -1.507837         1.195451         0.567538
 H        -0.302113         2.190775         0.032909
 H        -2.224469         2.101806        -1.495262
 H        -0.802900         1.123159        -2.300725
