19
Iteration:   275
 C        -3.468996         0.003667        -2.679106
 C        -2.385888        -0.075614        -1.598412
 C        -2.813443        -0.887571        -0.359875
 C        -1.605016        -1.308609        -1.213816
 O        -0.347641        -1.119533        -0.596241
 C        -0.096807         0.050083         0.162035
 O         0.912916         0.111472         0.836802
 C        -1.004553         1.294383        -0.055264
 C        -1.603270         1.236529        -1.393222
 H        -4.294680        -0.758974        -2.515045
 H        -4.028197         0.932867        -2.566601
 H        -3.154333        -0.214451        -3.683680
 H        -2.764421        -0.331080         0.630012
 H        -3.840207        -1.305434        -0.514509
 H        -1.467512        -2.276370        -1.792179
 H        -1.702934         1.456206         1.002452
 H        -0.323926         2.084859         0.062814
 H        -2.198685         2.131753        -1.633727
 H        -0.749481         1.238122        -2.040848
