19
Iteration:  3442charge 0 multiplicity 1
 C        -3.248555         0.299163        -2.697823
 C        -2.470689        -0.090717        -1.447909
 C        -2.994499        -1.273051        -0.705497
 C        -1.636015        -1.344416        -1.229136
 O        -0.576537        -1.139494        -0.248358
 C        -0.048144         0.059843         0.002833
 O         0.676408         0.324363         1.008667
 C        -0.276073         1.237788        -0.932038
 C        -1.823656         1.213253        -0.673245
 H        -3.656545        -0.594275        -3.133618
 H        -4.114300         0.957969        -2.468598
 H        -2.692474         0.850507        -3.507679
 H        -3.034934        -1.287187         0.396890
 H        -3.961570        -1.699767        -1.139668
 H        -1.196995        -2.116486        -1.901955
 H         0.368388         2.124879        -0.505978
 H        -0.109369         1.029568        -1.920403
 H        -2.039111         1.126595         0.375414
 H        -2.423724         2.017594        -0.999757
