19
Iteration:  1008
 C        -2.795976        -0.089912        -3.014926
 C        -2.500186        -0.034925        -1.545788
 C        -3.156834        -1.083544        -0.609214
 C        -1.700247        -1.223209        -0.972549
 O        -0.611439        -1.142382         0.072743
 C         0.063052         0.109435         0.003592
 O         1.252269         0.067674         0.243973
 C        -0.799324         1.349816        -0.131146
 C        -2.225702         1.382003        -0.892121
 H        -3.187894        -1.068243        -3.458904
 H        -3.606099         0.601398        -3.251996
 H        -2.063914         0.340776        -3.618796
 H        -3.354482        -0.811729         0.407853
 H        -3.858888        -1.813511        -1.010109
 H        -1.561687        -2.091611        -1.613503
 H        -1.046978         1.457231         0.955967
 H        -0.192278         2.331380        -0.333606
 H        -2.969245         1.763121        -0.247074
 H        -2.246815         2.153157        -1.798131
