19
Iteration:  1622
 C        -3.057160         0.137170        -2.799360
 C        -2.502988        -0.073266        -1.409473
 C        -3.001796        -1.212172        -0.572462
 C        -1.597877        -1.265766        -1.122046
 O        -0.479103        -1.112150        -0.251724
 C         0.015067         0.126651        -0.091955
 O         0.687128         0.276797         0.918464
 C        -0.488566         1.231031        -0.782159
 C        -2.010323         1.193036        -0.747358
 H        -3.499082        -0.775457        -3.163965
 H        -3.860369         0.867964        -2.789685
 H        -2.331985         0.330997        -3.529536
 H        -3.134585        -1.109918         0.501622
 H        -3.686272        -1.973673        -1.043739
 H        -1.366824        -1.823870        -2.053604
 H        -0.077857         2.107516        -0.334643
 H        -0.108416         1.205548        -1.933206
 H        -2.253185         1.396994         0.233957
 H        -2.518951         2.089354        -1.090068
