19
Iteration:  2602charge 0 multiplicity 1
 C        -3.527163        -0.150434        -2.608163
 C        -2.493173        -0.055619        -1.470133
 C        -2.598588        -0.908446        -0.283322
 C        -1.502025        -1.228163        -1.263737
 O        -0.214077        -0.971305        -0.744314
 C        -0.085295         0.052779         0.162042
 O         0.548866        -0.158266         1.181831
 C        -0.776349         1.425364        -0.368723
 C        -1.756872         1.358108        -1.464857
 H        -4.111089        -1.113802        -2.547848
 H        -4.315176         0.542460        -2.580046
 H        -2.884054        -0.223364        -3.515651
 H        -2.366675        -0.520404         0.669820
 H        -3.564979        -1.407674        -0.417051
 H        -1.540407        -2.122798        -1.891875
 H        -1.323094         1.787382         0.375549
 H         0.074668         2.139279        -0.497883
 H        -2.507750         2.259774        -1.376286
 H        -1.169302         1.391945        -2.498978
