19
Iteration:  3554charge 0 multiplicity 1
 C        -3.184375        -0.025960        -2.953728
 C        -2.494966        -0.038543        -1.563166
 C        -3.061047        -0.991090        -0.438005
 C        -1.724282        -1.183166        -1.156549
 O        -0.461019        -1.106203        -0.419579
 C         0.015996         0.071284         0.154731
 O         1.030700        -0.006383         0.864887
 C        -0.579060         1.294791        -0.373115
 C        -2.048949         1.297625        -0.952034
 H        -3.518825        -1.011818        -3.365993
 H        -4.039943         0.626596        -2.941170
 H        -2.473647         0.499251        -3.713731
 H        -2.892621        -0.524591         0.553167
 H        -3.890412        -1.654406        -0.411499
 H        -1.681067        -1.985528        -1.888841
 H        -0.236970         2.165807         0.207136
 H         0.074805         1.352338        -1.257232
 H        -2.643447         1.703533        -0.165314
 H        -2.115959         2.110005        -1.599496
