19
Iteration:  4774
 C        -3.555498        -0.053564        -2.718303
 C        -2.477926         0.000354        -1.590909
 C        -2.831729        -0.883075        -0.316078
 C        -1.623714        -1.211038        -1.184726
 O        -0.278694        -1.024027        -0.645167
 C         0.033396         0.056869         0.169178
 O         0.736896        -0.085327         1.108116
 C        -0.711954         1.302834        -0.253789
 C        -1.690625         1.292575        -1.459602
 H        -4.333191        -0.854289        -2.547431
 H        -4.113758         0.904547        -2.784839
 H        -3.110574        -0.323090        -3.690174
 H        -2.443703        -0.854004         0.714872
 H        -3.588371        -1.654093        -0.439314
 H        -1.554729        -2.019854        -1.922071
 H        -1.267077         1.357638         0.646377
 H        -0.010698         2.114593        -0.064148
 H        -2.492207         2.140473        -1.326072
 H        -1.339480         1.464492        -2.587918
