19
Iteration:  3470charge 0 multiplicity 1
 C        -3.249673         0.389874        -2.665218
 C        -2.477945        -0.067701        -1.408384
 C        -2.933671        -1.246414        -0.635962
 C        -1.574399        -1.175017        -1.177333
 O        -0.454514        -1.234682        -0.263656
 C         0.052863         0.047526         0.023560
 O         0.540000         0.276792         1.074725
 C        -0.353631         1.143871        -1.034379
 C        -1.931620         1.162424        -0.778816
 H        -3.725750        -0.525097        -3.107641
 H        -4.015937         1.119297        -2.296256
 H        -2.663985         0.940206        -3.403354
 H        -3.049809        -1.140981         0.469002
 H        -3.637288        -1.808295        -1.183258
 H        -1.247276        -1.820973        -2.015068
 H         0.154142         2.033911        -0.848305
 H        -0.221937         0.841351        -2.174921
 H        -2.169895         1.321014         0.399533
 H        -2.406754         1.895421        -1.525707
