19
Iteration:  2299charge 0 multiplicity 1
 C        -2.890208        -0.035450        -2.951511
 C        -2.455084        -0.047497        -1.521447
 C        -3.134929        -1.081451        -0.674711
 C        -1.687118        -1.251021        -0.951012
 O        -0.653331        -1.067670         0.094629
 C         0.049096         0.078904         0.012494
 O         1.277332         0.088094         0.134147
 C        -0.919399         1.350866         0.050387
 C        -2.033567         1.275615        -0.994321
 H        -3.617585        -0.842130        -3.246774
 H        -3.477574         0.899108        -3.078960
 H        -1.986315        -0.091723        -3.586518
 H        -3.494102        -0.714057         0.288428
 H        -3.891059        -1.614712        -1.223665
 H        -1.337490        -2.016500        -1.686293
 H        -1.568662         1.254652         1.032738
 H        -0.422399         2.298330        -0.021986
 H        -3.062150         1.786530        -0.765473
 H        -1.488205         1.818759        -1.857196
