19
Iteration:  4875charge 0 multiplicity 1
 C        -3.012650        -0.161009        -2.974327
 C        -2.396170        -0.083445        -1.658800
 C        -3.148865        -0.753557        -0.518234
 C        -1.877158        -1.274131        -0.972888
 O        -0.603733        -1.127994        -0.330647
 C         0.021134         0.091378         0.181363
 O         1.215363         0.121834         0.329802
 C        -0.884071         1.268112         0.245366
 C        -1.758255         1.276752        -1.127269
 H        -3.221633        -1.188600        -3.252197
 H        -4.060102         0.220438        -2.902554
 H        -2.597403         0.340798        -3.801977
 H        -3.207841        -0.378026         0.504065
 H        -3.947452        -1.447763        -0.720162
 H        -1.892802        -2.300280        -1.334743
 H        -1.360367         1.132555         1.186384
 H        -0.242668         2.172435         0.352843
 H        -2.618856         2.076984        -0.929243
 H        -1.180878         1.688294        -2.049996
