19
Iteration:  1989charge 0 multiplicity 1
 C        -3.264649        -0.025087        -2.849975
 C        -2.495809        -0.034084        -1.512198
 C        -2.929758        -1.314768        -0.608262
 C        -1.634144        -1.218848        -1.238802
 O        -0.576271        -1.124635        -0.135801
 C         0.060806         0.087345         0.156815
 O         1.006212         0.150732         0.896460
 C        -0.543010         1.387122        -0.579048
 C        -2.044784         1.381394        -0.988709
 H        -4.001200        -0.833739        -3.219131
 H        -3.935309         0.872046        -2.793760
 H        -2.565184         0.149978        -3.800242
 H        -2.958033        -0.915400         0.402493
 H        -3.787030        -1.892864        -0.992401
 H        -1.439406        -2.068404        -1.903868
 H        -0.304994         2.256362         0.045234
 H         0.071485         1.669687        -1.535367
 H        -2.630959         1.626688        -0.029302
 H        -2.334408         2.144288        -1.730935
