19
Iteration:  2748charge 0 multiplicity 1
 C        -2.754270        -0.100528        -3.056132
 C        -2.411555        -0.094005        -1.560575
 C        -3.163407        -0.919290        -0.495388
 C        -1.785413        -1.273495        -0.870017
 O        -0.671925        -1.087945        -0.025358
 C         0.044575         0.101415         0.015800
 O         1.258319         0.133458         0.024765
 C        -1.057666         1.251727         0.194458
 C        -1.958399         1.273880        -1.031411
 H        -2.987972        -1.066518        -3.398354
 H        -3.551839         0.650882        -3.152359
 H        -1.927823         0.429354        -3.523362
 H        -3.172013        -0.421023         0.472410
 H        -4.092922        -1.576711        -0.718138
 H        -1.432569        -2.004844        -1.509454
 H        -1.492305         0.931200         1.093606
 H        -0.551461         2.134458         0.403143
 H        -2.965270         1.946220        -1.024437
 H        -1.396572         1.955883        -1.851127
