19
Iteration:  2200
 C        -3.335216        -0.162802        -2.895869
 C        -2.473524        -0.042078        -1.621052
 C        -2.907190        -0.805126        -0.337236
 C        -1.698822        -1.197890        -1.119235
 O        -0.360925        -1.036304        -0.598890
 C         0.022099         0.039567         0.182557
 O         1.075267         0.130338         0.777907
 C        -1.023711         1.187405         0.094866
 C        -1.755619         1.208367        -1.310868
 H        -3.402730        -1.278582        -3.176380
 H        -4.295072         0.325991        -2.650072
 H        -2.725446         0.202534        -3.767086
 H        -2.841177        -0.303883         0.585543
 H        -3.863498        -1.321470        -0.387061
 H        -1.750558        -2.097802        -1.823805
 H        -1.750454         1.239859         0.897873
 H        -0.373744         1.930644         0.094375
 H        -2.512935         2.118589        -1.212465
 H        -1.063121         1.538934        -2.194233
