19
Iteration:  4811
 C        -3.313811        -0.062977        -2.811255
 C        -2.458361        -0.056770        -1.560858
 C        -2.966101        -0.822531        -0.363446
 C        -1.695224        -1.260451        -1.159780
 O        -0.370367        -1.099472        -0.544184
 C        -0.043693         0.092821         0.177686
 O         0.910402        -0.007327         0.848893
 C        -0.729483         1.331064        -0.118099
 C        -1.806255         1.217820        -1.320679
 H        -3.682136        -1.048788        -3.018883
 H        -4.139327         0.619696        -2.581883
 H        -2.752784         0.336595        -3.638441
 H        -2.620591        -0.623160         0.649803
 H        -3.846719        -1.479673        -0.380823
 H        -1.712859        -2.142651        -1.826439
 H        -1.279869         1.816396         0.760012
 H         0.065136         2.051401        -0.510572
 H        -2.539065         2.025033        -1.195281
 H        -1.198996         1.467234        -2.103385
