19
Iteration:  2606charge 0 multiplicity 1
 C        -3.472515        -0.158119        -2.596509
 C        -2.494270        -0.065412        -1.456375
 C        -2.616092        -0.903929        -0.292956
 C        -1.515372        -1.227162        -1.260838
 O        -0.203481        -1.009246        -0.748810
 C        -0.101829         0.115070         0.158150
 O         0.556111        -0.158298         1.155628
 C        -0.762495         1.426072        -0.321302
 C        -1.764128         1.343332        -1.514443
 H        -4.124614        -0.998441        -2.468281
 H        -4.256066         0.676320        -2.617047
 H        -2.978517        -0.175281        -3.579010
 H        -2.406546        -0.569094         0.837471
 H        -3.562499        -1.478962        -0.391118
 H        -1.660499        -2.149186        -1.932025
 H        -1.465049         1.813087         0.548238
 H         0.013430         2.148913        -0.483975
 H        -2.492111         2.172229        -1.398905
 H        -1.210696         1.463834        -2.458679
