19
Iteration:  2752charge 0 multiplicity 1
 C        -2.723481        -0.094233        -3.012241
 C        -2.382906        -0.122345        -1.554007
 C        -3.209245        -0.875362        -0.530558
 C        -1.773643        -1.282001        -0.905564
 O        -0.677265        -1.076173         0.001984
 C         0.038762         0.092706         0.022447
 O         1.249832         0.151634        -0.015525
 C        -1.060840         1.247407         0.198126
 C        -1.980371         1.269376        -0.996163
 H        -3.045936        -1.103907        -3.375908
 H        -3.488199         0.680647        -3.220290
 H        -1.914720         0.302734        -3.621544
 H        -3.301120        -0.434066         0.439280
 H        -3.993155        -1.544996        -0.677054
 H        -1.411774        -2.082406        -1.601234
 H        -1.389367         0.865729         1.181216
 H        -0.460795         2.211971         0.271854
 H        -2.884313         1.845047        -1.004942
 H        -1.395283         1.812310        -1.695437
