19
Iteration:   539charge 0 multiplicity 1
 C        -3.037753        -0.076475        -3.053690
 C        -2.430795        -0.040940        -1.559055
 C        -3.075344        -0.773022        -0.270188
 C        -1.842171        -1.305177        -0.972672
 O        -0.470620        -1.157647        -0.350924
 C        -0.038633         0.016691         0.121936
 O         1.126932         0.274924         0.317277
 C        -1.053803         1.108772         0.175126
 C        -1.653852         1.235673        -1.227994
 H        -3.159959        -1.210508        -3.414265
 H        -3.971688         0.541260        -3.133543
 H        -2.390583         0.520618        -3.848521
 H        -2.959434        -0.270186         0.680357
 H        -4.016098        -1.247993        -0.272826
 H        -1.997442        -2.344553        -1.273322
 H        -1.746481         0.936759         0.891296
 H        -0.595405         2.062931         0.436433
 H        -2.362603         2.162042        -0.986717
 H        -0.930156         1.573376        -1.961624
