19
Iteration:  1997charge 0 multiplicity 1
 C        -3.325610         0.006919        -2.834979
 C        -2.460987        -0.029648        -1.594286
 C        -2.982025        -1.255182        -0.566522
 C        -1.620315        -1.269948        -1.200430
 O        -0.540171        -1.098412        -0.203375
 C         0.057793         0.098544         0.125301
 O         1.003745         0.162202         0.939790
 C        -0.577715         1.370157        -0.536608
 C        -2.007369         1.309059        -1.053112
 H        -3.926453        -0.899667        -2.961894
 H        -4.023160         0.923360        -2.764946
 H        -2.473662         0.110234        -3.632420
 H        -3.015531        -1.016975         0.521425
 H        -3.750078        -1.887246        -0.862777
 H        -1.304468        -1.997212        -2.058279
 H        -0.352667         2.188646         0.172599
 H         0.146878         1.596440        -1.190609
 H        -2.672864         1.486688        -0.204950
 H        -2.273798         2.301349        -1.708533
