19
Iteration:   154
 C        -2.875654        -0.044912        -2.959480
 C        -2.409936        -0.020069        -1.499976
 C        -3.163300        -0.991845        -0.542046
 C        -1.737839        -1.207376        -0.973751
 O        -0.676613        -1.122420         0.000371
 C         0.048266         0.001979        -0.049695
 O         1.214683         0.103604         0.263007
 C        -0.847568         1.260058        -0.039956
 C        -2.028081         1.354499        -1.050614
 H        -3.288839        -1.043473        -3.239038
 H        -3.778464         0.601752        -3.098186
 H        -2.156563         0.375268        -3.627881
 H        -3.091196        -0.803238         0.536392
 H        -3.920811        -1.628779        -0.891947
 H        -1.470604        -2.112254        -1.537217
 H        -1.146012         1.285912         0.891683
 H        -0.248075         2.042247        -0.143348
 H        -2.863729         2.026934        -0.714148
 H        -1.697623         1.913576        -1.853662
