19
Iteration:  1670
 C        -3.238744         0.217475        -2.758288
 C        -2.572545        -0.082246        -1.407600
 C        -2.897825        -1.354893        -0.704790
 C        -1.504362        -1.148287        -1.224077
 O        -0.628356        -1.067214        -0.094700
 C        -0.005865         0.108982         0.066598
 O         0.774225         0.321080         0.940853
 C        -0.380001         1.132260        -0.932496
 C        -1.965073         1.121110        -0.745505
 H        -3.741622        -0.554801        -3.348767
 H        -3.956048         1.053307        -2.628566
 H        -2.416503         0.477811        -3.521993
 H        -3.033488        -1.327971         0.423531
 H        -3.584659        -1.993796        -1.262477
 H        -1.001984        -1.781112        -1.920204
 H        -0.049110         2.201538        -0.752267
 H        -0.281009         0.928121        -1.902454
 H        -2.439952         1.536866         0.225290
 H        -2.290607         2.054744        -1.201921
