19
Iteration:  3005
 C        -3.523828        -0.193715        -2.567318
 C        -2.424875        -0.032203        -1.560948
 C        -2.715505        -0.920096        -0.265953
 C        -1.603252        -1.202399        -1.291976
 O        -0.237192        -0.977672        -0.819314
 C        -0.054902         0.078499         0.092619
 O         0.534994        -0.049377         1.184570
 C        -0.703970         1.357519        -0.211353
 C        -1.644538         1.271733        -1.466401
 H        -3.992092        -1.197166        -2.433958
 H        -4.250317         0.620676        -2.538129
 H        -3.183794        -0.014812        -3.681603
 H        -2.593162        -0.396614         0.703834
 H        -3.525724        -1.600425        -0.450512
 H        -1.720112        -2.113312        -1.719972
 H        -1.169462         1.631165         0.768171
 H        -0.044459         2.171818        -0.255258
 H        -2.471671         2.010846        -1.450122
 H        -0.987361         1.592962        -2.380280
