19
Iteration:  2970charge 0 multiplicity 1
 C        -3.429364        -0.093038        -2.722883
 C        -2.506282        -0.053275        -1.584998
 C        -2.714069        -0.896673        -0.313686
 C        -1.634986        -1.186698        -1.254582
 O        -0.298894        -1.016302        -0.574401
 C        -0.051752         0.072387         0.208004
 O         0.865780        -0.070042         1.022495
 C        -0.881931         1.337315        -0.175628
 C        -1.806322         1.271318        -1.483384
 H        -4.215937        -0.907380        -2.683141
 H        -4.026632         0.848937        -2.809747
 H        -2.813591        -0.352545        -3.592382
 H        -2.502183        -0.541076         0.648378
 H        -3.632080        -1.505600        -0.317522
 H        -1.611640        -2.127441        -1.874866
 H        -1.536125         1.585275         0.618802
 H        -0.102325         2.113008        -0.268179
 H        -2.483234         2.056023        -1.475658
 H        -1.069344         1.380912        -2.333186
