19
Iteration:  3417charge 0 multiplicity 1
 C        -3.104030         0.198621        -2.771274
 C        -2.593776        -0.028773        -1.398313
 C        -2.963874        -1.211884        -0.620680
 C        -1.609232        -1.149843        -1.198759
 O        -0.596264        -1.078527        -0.223993
 C         0.116893         0.033399         0.006033
 O         0.814214         0.104219         0.983013
 C        -0.509695         1.202434        -0.860042
 C        -1.981509         1.258982        -0.798730
 H        -3.297351        -0.750557        -3.306169
 H        -4.111953         0.704062        -2.741495
 H        -2.507432         0.784834        -3.395854
 H        -2.977259        -1.169478         0.505200
 H        -3.709934        -1.919916        -0.951025
 H        -1.208046        -1.809084        -2.013512
 H        -0.099440         2.096234        -0.486613
 H        -0.268049         1.064606        -1.955432
 H        -2.318459         1.303389         0.189529
 H        -2.478325         2.235968        -1.118696
