19
Iteration:  2512
 C        -3.357511        -0.158761        -2.771599
 C        -2.505978        -0.012647        -1.516343
 C        -2.806140        -0.972678        -0.298032
 C        -1.609446        -1.247356        -1.247973
 O        -0.310901        -1.053365        -0.632342
 C        -0.028008         0.053349         0.101085
 O         0.718782         0.058888         1.077869
 C        -0.705083         1.324425        -0.306006
 C        -1.853785         1.345884        -1.264838
 H        -3.677348        -1.158149        -3.152861
 H        -4.409118         0.208514        -2.586296
 H        -2.896501         0.464694        -3.543070
 H        -2.528180        -0.578700         0.684271
 H        -3.638563        -1.608626        -0.281200
 H        -1.474932        -2.079619        -1.955686
 H        -0.893690         1.944658         0.556219
 H         0.293223         1.544146        -0.755765
 H        -2.615389         2.171369        -0.917193
 H        -1.520371         1.603016        -2.374609
