19
Iteration:   718charge 0 multiplicity 1
 C        -3.244969         0.014818        -2.769498
 C        -2.495087         0.011138        -1.517636
 C        -2.980300        -1.143979        -0.545092
 C        -1.656582        -1.199540        -1.213503
 O        -0.553758        -1.125972        -0.293594
 C         0.050835         0.085985         0.062383
 O         0.867015         0.163214         0.956897
 C        -0.454898         1.289042        -0.645609
 C        -1.967283         1.238683        -0.934647
 H        -3.483617        -0.956893        -3.111600
 H        -4.181219         0.620541        -2.642969
 H        -2.565046         0.267516        -3.665603
 H        -2.932688        -0.965118         0.614991
 H        -3.912879        -1.673340        -0.957823
 H        -1.472225        -1.846727        -2.075625
 H        -0.202835         2.128306         0.032203
 H         0.188704         1.295651        -1.455848
 H        -2.471117         1.427272         0.111721
 H        -2.228077         2.140442        -1.535539
