19
Iteration:  2745charge 0 multiplicity 1
 C        -2.777156        -0.091909        -3.073954
 C        -2.433520        -0.066898        -1.560816
 C        -3.137843        -0.958306        -0.472575
 C        -1.787363        -1.257564        -0.847428
 O        -0.658402        -1.099755        -0.040757
 C         0.037268         0.113386         0.009180
 O         1.258357         0.120016         0.056725
 C        -1.040970         1.244309         0.180063
 C        -1.951370         1.296981        -1.074855
 H        -2.970362        -1.114166        -3.484934
 H        -3.651571         0.582091        -3.125492
 H        -1.874456         0.481152        -3.517290
 H        -3.109175        -0.401219         0.532806
 H        -4.052868        -1.536249        -0.741780
 H        -1.491729        -2.114640        -1.537339
 H        -1.681461         0.946714         1.176766
 H        -0.575940         2.209831         0.504748
 H        -2.873212         1.933040        -0.953457
 H        -1.447805         1.913026        -1.882663
