19
Iteration:  4340charge 0 multiplicity 1
 C        -3.554214        -0.128985        -2.757065
 C        -2.600239         0.036472        -1.537757
 C        -2.799271        -0.897797        -0.302257
 C        -1.719701        -1.175837        -1.257017
 O        -0.277238        -1.040586        -0.768685
 C        -0.035730         0.044830         0.263535
 O         0.855131        -0.037369         1.036816
 C        -0.788786         1.239711        -0.125185
 C        -1.599812         1.314070        -1.382380
 H        -3.971353        -1.226576        -2.928000
 H        -4.449678         0.602463        -2.584775
 H        -3.039405         0.273409        -3.641916
 H        -2.447340        -0.600402         0.691917
 H        -3.631476        -1.560033        -0.418688
 H        -1.634484        -2.126191        -1.840403
 H        -1.275615         1.781455         0.740265
 H         0.139966         1.907358        -0.215811
 H        -2.111229         2.259178        -1.457369
 H        -0.876764         1.331193        -2.305260
