19
Iteration:   529
 C        -3.026863        -0.096672        -3.068073
 C        -2.458151        -0.019323        -1.596148
 C        -3.061220        -0.704183        -0.254840
 C        -1.865193        -1.259485        -0.917834
 O        -0.478263        -1.244029        -0.400908
 C        -0.017756         0.036488         0.093896
 O         1.129228         0.302702         0.368546
 C        -1.024001         1.098736         0.141667
 C        -1.707587         1.246410        -1.164299
 H        -3.087938        -1.162841        -3.485719
 H        -4.053715         0.272371        -3.087010
 H        -2.246810         0.405959        -3.756372
 H        -2.820984        -0.326854         0.715624
 H        -3.908674        -1.301893        -0.262715
 H        -1.897195        -2.212715        -1.519607
 H        -1.712304         0.867251         0.866777
 H        -0.565654         1.911703         0.444476
 H        -2.459236         2.125035        -1.161368
 H        -0.953841         1.450033        -1.906327
