19
Iteration:   444charge 0 multiplicity 1
 C        -3.176976         0.006584        -2.823907
 C        -2.467128        -0.044616        -1.535079
 C        -2.992099        -1.080470        -0.462785
 C        -1.651530        -1.207039        -1.101689
 O        -0.542892        -1.205170        -0.179711
 C        -0.000832         0.010342         0.107133
 O         1.098960         0.124928         0.632013
 C        -0.762649         1.297303        -0.251531
 C        -1.967448         1.415492        -1.242405
 H        -3.868375        -0.746073        -2.981009
 H        -3.656255         0.965815        -2.868254
 H        -2.503367        -0.067632        -3.705813
 H        -3.169873        -0.868029         0.560816
 H        -3.762658        -1.611553        -0.893913
 H        -1.548877        -2.187049        -1.753629
 H        -1.106071         1.740605         0.837410
 H         0.106561         2.013459        -0.562923
 H        -2.775978         1.926182        -0.837517
 H        -1.608493         1.927895        -2.150775
