19
Iteration:  4459
 C        -3.036947        -0.037397        -2.986539
 C        -2.453649        -0.029476        -1.477282
 C        -3.094204        -0.865055        -0.466553
 C        -1.724477        -1.278544        -1.057456
 O        -0.606052        -1.120735        -0.198326
 C        -0.020805         0.092260         0.048863
 O         1.170486        -0.017598         0.382238
 C        -0.855808         1.321179         0.072202
 C        -1.899972         1.287886        -1.112237
 H        -3.010492        -1.099989        -3.325151
 H        -4.078097         0.343814        -3.058140
 H        -2.510855         0.541382        -3.701653
 H        -3.008008        -0.466536         0.534841
 H        -3.773179        -1.621202        -0.781157
 H        -1.590435        -2.173587        -1.716092
 H        -1.205402         1.474104         1.051061
 H        -0.126296         2.161608        -0.076115
 H        -2.645509         2.052681        -0.979528
 H        -1.277129         1.692177        -1.990753
