19
Iteration:  1446charge 0 multiplicity 1
 C        -2.818853        -0.070241        -3.002748
 C        -2.483996        -0.014953        -1.531509
 C        -3.080650        -1.096536        -0.581725
 C        -1.741498        -1.239607        -1.018726
 O        -0.546596        -1.133803        -0.167835
 C         0.010996         0.088001         0.041183
 O         1.179498         0.120812         0.508923
 C        -0.761503         1.420000        -0.311303
 C        -2.285267         1.308563        -0.764992
 H        -2.927587        -1.173773        -3.319099
 H        -3.744113         0.476587        -3.324141
 H        -2.042689         0.248542        -3.669847
 H        -3.249965        -0.800294         0.432583
 H        -3.656862        -1.976737        -0.893560
 H        -1.598993        -2.164084        -1.598553
 H        -0.565184         2.112481         0.392451
 H        -0.227446         1.789760        -1.142225
 H        -2.904722         1.309294         0.225334
 H        -2.502051         2.232568        -1.366748
