19
Iteration:   896
 C        -2.984525        -0.036356        -2.988022
 C        -2.414187        -0.093922        -1.491061
 C        -3.082383        -1.162586        -0.655561
 C        -1.649426        -1.249991        -1.015850
 O        -0.703837        -1.043761        -0.054891
 C        -0.020540         0.156842         0.070989
 O         1.156119         0.045347         0.384240
 C        -0.697411         1.401150        -0.189755
 C        -2.088057         1.292361        -0.865810
 H        -3.544468        -0.897167        -3.128935
 H        -3.706295         0.759016        -3.045093
 H        -2.168351         0.191209        -3.687240
 H        -3.244433        -0.834536         0.326085
 H        -3.666742        -1.985244        -1.017746
 H        -1.305011        -2.016292        -1.824206
 H        -0.694105         2.126985         0.590927
 H         0.142014         1.863932        -0.849774
 H        -2.859268         1.543442        -0.165818
 H        -2.177992         2.116998        -1.689757
