19
Iteration:   408charge 0 multiplicity 1
 C        -3.235986        -0.055206        -2.868855
 C        -2.487639        -0.115556        -1.539132
 C        -3.008867        -0.999119        -0.363842
 C        -1.694629        -1.225902        -1.177069
 O        -0.502451        -1.057018        -0.397674
 C         0.019600         0.084504         0.094066
 O         1.001298         0.065096         0.813204
 C        -0.648401         1.352579        -0.271146
 C        -1.888266         1.233436        -1.161752
 H        -3.784812        -0.988083        -3.139209
 H        -3.962518         0.734138        -2.859024
 H        -2.460913         0.364433        -3.545639
 H        -2.961272        -0.566446         0.646764
 H        -3.888508        -1.660647        -0.707271
 H        -1.665179        -2.145201        -1.661675
 H        -0.833629         1.872105         0.751638
 H         0.089897         1.888859        -0.726563
 H        -2.655071         1.886206        -0.733684
 H        -1.750544         1.770329        -2.065753
