19
Iteration:  3483
 C        -3.228717         0.328574        -2.742770
 C        -2.569907        -0.002624        -1.377433
 C        -2.903468        -1.280666        -0.539188
 C        -1.528952        -1.227162        -1.253868
 O        -0.441556        -1.174652        -0.301844
 C        -0.025129         0.051720         0.033019
 O         0.576994         0.215388         1.091307
 C        -0.401863         1.096618        -0.981820
 C        -1.910278         1.302545        -0.820228
 H        -3.639603        -0.466411        -3.356473
 H        -4.119894         0.996690        -2.534269
 H        -2.556640         0.859471        -3.332196
 H        -2.809173        -1.178266         0.566725
 H        -3.693344        -2.048876        -0.759191
 H        -1.340190        -1.870862        -2.167284
 H         0.221587         1.975187        -0.790692
 H        -0.213095         0.711241        -2.012722
 H        -2.145560         1.398986         0.248270
 H        -2.287043         2.328439        -1.136586
