19
Iteration:   373
 C        -3.299069        -0.282640        -2.840992
 C        -2.483607         0.031164        -1.513169
 C        -2.922649        -0.798500        -0.328979
 C        -1.622155        -1.112859        -1.189931
 O        -0.320947        -1.174204        -0.525166
 C         0.014098        -0.014461         0.085855
 O         0.898028        -0.067411         0.901841
 C        -0.721760         1.366136        -0.241589
 C        -1.990940         1.453611        -1.202101
 H        -3.198941        -1.303061        -3.368931
 H        -4.344881         0.150730        -2.784527
 H        -2.765754         0.229268        -3.659447
 H        -2.977257        -0.347247         0.727685
 H        -3.817864        -1.499210        -0.496065
 H        -1.649989        -2.048929        -1.688092
 H        -0.875418         1.868081         0.701155
 H        -0.000386         1.906207        -0.696327
 H        -2.856296         1.960385        -0.677622
 H        -1.651711         1.821204        -2.158613
