19
Iteration:  4874charge 0 multiplicity 1
 C        -3.015458        -0.158008        -2.960670
 C        -2.397432        -0.084213        -1.658747
 C        -3.139838        -0.748294        -0.517344
 C        -1.871664        -1.271608        -0.971925
 O        -0.605106        -1.128979        -0.338232
 C         0.027089         0.087634         0.188096
 O         1.212049         0.119104         0.338529
 C        -0.883380         1.260263         0.236944
 C        -1.768743         1.284174        -1.130763
 H        -3.204345        -1.220254        -3.247418
 H        -4.091768         0.193762        -2.897943
 H        -2.573458         0.353558        -3.791147
 H        -3.217872        -0.372699         0.491510
 H        -3.944727        -1.437774        -0.731648
 H        -1.882164        -2.315215        -1.370018
 H        -1.350382         1.161846         1.158428
 H        -0.252298         2.162998         0.347353
 H        -2.623679         2.080395        -0.959811
 H        -1.193656         1.699509        -2.088724
