19
Iteration:   549
 C        -3.035927        -0.044548        -2.954899
 C        -2.439295        -0.094464        -1.574580
 C        -3.081948        -0.794297        -0.348067
 C        -1.779621        -1.304809        -0.958190
 O        -0.501242        -1.137212        -0.323663
 C        -0.047066         0.065024         0.130407
 O         1.156075         0.204380         0.282062
 C        -1.067673         1.162893         0.217236
 C        -1.676710         1.239620        -1.238455
 H        -3.378065        -1.098193        -3.314040
 H        -3.997819         0.540398        -3.019879
 H        -2.256677         0.396890        -3.665601
 H        -3.165639        -0.183316         0.546283
 H        -3.953791        -1.379344        -0.610558
 H        -1.770202        -2.260523        -1.407951
 H        -1.818231         1.114932         0.944706
 H        -0.430016         2.103767         0.448630
 H        -2.467449         2.072852        -1.375783
 H        -0.917485         1.450284        -2.017122
