19
Iteration:  4891
 C        -3.031623        -0.097966        -3.130033
 C        -2.410750        -0.073586        -1.576963
 C        -3.233534        -0.801476        -0.462400
 C        -1.803382        -1.281513        -0.918769
 O        -0.565214        -1.114310        -0.167497
 C         0.026764         0.089645         0.054429
 O         1.199647         0.137119         0.188252
 C        -0.949859         1.213179         0.271969
 C        -1.690619         1.245949        -1.037886
 H        -3.382215        -1.135400        -3.330646
 H        -3.884157         0.573683        -3.237694
 H        -2.139973         0.118838        -3.802155
 H        -3.386231        -0.213816         0.450247
 H        -4.151176        -1.358688        -0.755732
 H        -1.681642        -2.182341        -1.557171
 H        -1.747411         1.176552         1.136842
 H        -0.466503         2.180040         0.406157
 H        -2.420181         1.980696        -1.126856
 H        -0.991953         1.549988        -1.772974
