19
Iteration:  2025
 C        -3.300385        -0.050677        -2.825174
 C        -2.474534        -0.082910        -1.571150
 C        -2.923331        -1.060574        -0.465896
 C        -1.576729        -1.271879        -1.163389
 O        -0.383218        -1.118157        -0.419847
 C        -0.015403         0.095878         0.122189
 O         0.866992         0.095666         0.941896
 C        -0.640515         1.415334        -0.443213
 C        -2.000422         1.283079        -1.049715
 H        -3.782546        -1.036025        -3.088129
 H        -4.013462         0.745514        -2.643656
 H        -2.591148         0.400618        -3.509715
 H        -3.119385        -0.516528         0.462167
 H        -3.762184        -1.787138        -0.635031
 H        -1.529647        -2.157888        -1.734081
 H        -0.517587         2.110697         0.395967
 H         0.259524         1.581442        -1.262094
 H        -2.823304         1.819106        -0.516392
 H        -1.906895         1.843431        -1.905956
