19
Iteration:   210charge 0 multiplicity 1
 C        -3.059978        -0.131761        -2.926703
 C        -2.520422        -0.021859        -1.513825
 C        -3.119772        -0.893031        -0.397182
 C        -1.740165        -1.188951        -0.988916
 O        -0.473320        -1.078289        -0.491603
 C         0.007694         0.058910         0.143034
 O         1.130498         0.027836         0.577469
 C        -0.787026         1.295130        -0.071087
 C        -1.915278         1.301590        -1.121134
 H        -2.988974        -1.222285        -3.192024
 H        -4.062070         0.219372        -3.031875
 H        -2.384194         0.210129        -3.684678
 H        -3.479734        -0.302292         0.513348
 H        -3.872867        -1.661519        -0.627403
 H        -1.791877        -2.156489        -1.597430
 H        -1.219331         1.541523         0.839510
 H        -0.158410         2.081390        -0.264702
 H        -2.650291         1.972978        -0.659814
 H        -1.504925         1.670682        -2.010933
