19
Iteration:   299
 C        -3.518540         0.008248        -2.688653
 C        -2.484077        -0.073539        -1.540525
 C        -2.886540        -0.909660        -0.308659
 C        -1.641389        -1.286199        -1.222874
 O        -0.329106        -1.001774        -0.644949
 C         0.006760         0.132045         0.156375
 O         0.886257         0.059499         0.977850
 C        -0.883103         1.251359        -0.131741
 C        -1.574590         1.184388        -1.493982
 H        -4.284949        -0.809059        -2.834307
 H        -4.091277         0.859463        -2.549324
 H        -2.956449        -0.003062        -3.631662
 H        -2.635139        -0.864216         0.840302
 H        -3.762260        -1.695576        -0.523369
 H        -1.473430        -2.171593        -1.782727
 H        -1.715393         1.185366         0.789138
 H        -0.374926         2.230727         0.112708
 H        -2.172041         2.097327        -1.514436
 H        -0.887788         1.158037        -2.322363
