19
Iteration:  3004
 C        -3.525293        -0.192231        -2.575562
 C        -2.426981        -0.035787        -1.564954
 C        -2.709229        -0.918268        -0.269015
 C        -1.608271        -1.197212        -1.290130
 O        -0.233917        -0.977033        -0.811723
 C        -0.071050         0.072797         0.101200
 O         0.544613        -0.047102         1.173447
 C        -0.704158         1.358611        -0.206316
 C        -1.653804         1.276549        -1.460441
 H        -4.000491        -1.198725        -2.420856
 H        -4.251083         0.635579        -2.567844
 H        -3.203633        -0.043324        -3.667970
 H        -2.581590        -0.428784         0.687843
 H        -3.511820        -1.614114        -0.463125
 H        -1.732454        -2.135176        -1.716802
 H        -1.164298         1.653348         0.729655
 H        -0.000993         2.189408        -0.238468
 H        -2.387812         1.977585        -1.467993
 H        -0.975998         1.562087        -2.329036
