19
Iteration:  1065charge 0 multiplicity 1
 C        -3.059894        -0.035312        -2.890933
 C        -2.430498         0.013074        -1.570147
 C        -3.016588        -1.124433        -0.537491
 C        -1.690165        -1.263403        -1.068105
 O        -0.593560        -1.119054        -0.054459
 C         0.050999         0.107235         0.016492
 O         1.180491         0.063372         0.475857
 C        -0.901687         1.322567        -0.131593
 C        -2.054900         1.364549        -1.126239
 H        -3.512447        -1.037672        -3.352387
 H        -3.854737         0.745359        -2.915342
 H        -2.228863         0.278226        -3.491607
 H        -2.929262        -0.930917         0.585168
 H        -3.822743        -1.931416        -0.853137
 H        -1.473790        -2.006457        -1.745286
 H        -1.036377         1.616751         0.980433
 H        -0.212595         2.188898        -0.400010
 H        -2.777585         2.002256        -0.627024
 H        -1.533052         1.937453        -2.072648
