19
Iteration:  2126charge 0 multiplicity 1
 C        -3.545909        -0.068234        -2.773165
 C        -2.440699        -0.038486        -1.549304
 C        -2.734733        -1.042418        -0.342546
 C        -1.549583        -1.228171        -1.240164
 O        -0.268264        -1.089152        -0.593390
 C        -0.079204         0.065863         0.163582
 O         0.758868         0.066831         1.021013
 C        -0.788289         1.357670        -0.208571
 C        -1.799012         1.306347        -1.336175
 H        -4.076421        -1.026235        -2.817637
 H        -4.214947         0.823981        -2.601582
 H        -3.014173         0.132786        -3.680902
 H        -2.615806        -0.665881         0.672657
 H        -3.574173        -1.727317        -0.389504
 H        -1.575787        -2.106626        -1.995938
 H        -1.072733         1.641558         0.819281
 H         0.049729         2.057665        -0.687639
 H        -2.472150         2.135291        -1.350587
 H        -1.255759         1.445494        -2.217045
