19
Iteration:  4794
 C        -3.461121        -0.050619        -2.723500
 C        -2.445246        -0.106640        -1.602016
 C        -2.901935        -0.925068        -0.403878
 C        -1.616584        -1.272874        -1.109040
 O        -0.338921        -1.029296        -0.623121
 C        -0.012075         0.011319         0.174324
 O         0.852181        -0.087961         0.979331
 C        -0.774040         1.443487        -0.192341
 C        -1.712054         1.333258        -1.332713
 H        -4.082561        -0.986150        -2.647281
 H        -4.048149         0.851623        -2.462945
 H        -2.960776        -0.068985        -3.759270
 H        -3.103872        -0.251036         0.448269
 H        -3.740184        -1.531375        -0.733899
 H        -1.608475        -2.234239        -1.556681
 H        -1.099149         1.861270         0.754641
 H         0.018242         2.067184        -0.526798
 H        -2.535789         2.073777        -1.384511
 H        -1.192429         1.478873        -2.404845
