19
Iteration:    11charge 0 multiplicity 1
 C        -3.121695        -0.172558        -2.945603
 C        -2.510128        -0.037081        -1.539173
 C        -3.105998        -0.807898        -0.365935
 C        -1.747572        -1.200950        -0.986821
 O        -0.445818        -1.113115        -0.398980
 C         0.000529         0.110121         0.090662
 O         1.143596         0.063793         0.530728
 C        -0.956159         1.248777         0.076157
 C        -1.781217         1.321529        -1.279635
 H        -3.385018        -1.215968        -3.196455
 H        -4.048157         0.531376        -3.023026
 H        -2.301143         0.099286        -3.724078
 H        -3.247247        -0.437272         0.664134
 H        -3.621743        -1.721130        -0.583922
 H        -1.779773        -2.169789        -1.468492
 H        -1.501933         1.074347         0.939754
 H        -0.249917         2.101389         0.232071
 H        -2.608903         2.252257        -1.373692
 H        -0.973105         1.321601        -2.022424
