19
Iteration:  2829charge 0 multiplicity 1
 C        -2.566936        -0.020277        -3.001069
 C        -2.347962        -0.089474        -1.521997
 C        -3.196709        -0.954055        -0.497871
 C        -1.722129        -1.271475        -0.903793
 O        -0.753445        -1.080273         0.086956
 C        -0.023194         0.106557         0.026833
 O         1.156243         0.144622        -0.249862
 C        -1.074673         1.212596         0.270402
 C        -1.941114         1.300931        -1.009776
 H        -3.087537        -0.914992        -3.428968
 H        -3.329834         0.716727        -3.238551
 H        -1.677300         0.023171        -3.599929
 H        -3.227428        -0.574232         0.543793
 H        -4.033065        -1.536918        -0.729066
 H        -1.556446        -2.323951        -1.338628
 H        -1.605399         0.898403         1.173516
 H        -0.461625         2.109484         0.524012
 H        -2.850077         1.945192        -0.680310
 H        -1.370863         1.799645        -1.835485
