19
Iteration:  4941
 C        -2.698178        -0.094319        -2.997087
 C        -2.380683         0.015486        -1.510324
 C        -3.083112        -0.837174        -0.467430
 C        -1.795067        -1.368960        -0.888801
 O        -0.649880        -1.230288        -0.074639
 C        -0.131470         0.064931        -0.026306
 O         1.069240         0.158126        -0.023024
 C        -0.955442         1.247926         0.256898
 C        -1.880407         1.365093        -1.041149
 H        -3.564385        -0.728154        -3.155094
 H        -3.061435         0.924149        -3.297251
 H        -1.801254        -0.375137        -3.533714
 H        -3.155788        -0.514527         0.582359
 H        -4.031022        -1.282240        -0.764695
 H        -1.762783        -2.253030        -1.459894
 H        -1.434249         1.181243         1.167255
 H        -0.314530         2.125784         0.294950
 H        -2.668131         2.205734        -1.241306
 H        -1.053518         1.736508        -1.797818
