19
Iteration:   905charge 0 multiplicity 1
 C        -2.986700        -0.039835        -3.024264
 C        -2.476809        -0.065445        -1.543426
 C        -3.071456        -1.122908        -0.597036
 C        -1.653405        -1.212779        -1.034591
 O        -0.682698        -1.062856        -0.004696
 C        -0.010257         0.085803         0.108593
 O         1.159754         0.059296         0.335565
 C        -0.709018         1.433261        -0.201754
 C        -2.044590         1.276027        -0.859682
 H        -3.387424        -0.919061        -3.401907
 H        -3.693874         0.749717        -3.213279
 H        -2.072678         0.054692        -3.669417
 H        -3.216771        -1.003008         0.475220
 H        -3.712803        -1.908171        -1.128448
 H        -1.340699        -2.072844        -1.667453
 H        -0.911182         1.860179         0.836457
 H        -0.022663         2.207779        -0.877612
 H        -2.801112         1.478484        -0.054971
 H        -2.271510         1.946677        -1.610604
