19
Iteration:  1476charge 0 multiplicity 1
 C        -2.913243        -0.034873        -2.906660
 C        -2.485612        -0.075041        -1.511464
 C        -3.201102        -1.217856        -0.607956
 C        -1.720186        -1.221730        -1.106192
 O        -0.565842        -1.071427        -0.081785
 C         0.054909         0.118896         0.006567
 O         1.119034         0.183364         0.511745
 C        -0.713898         1.405886        -0.278131
 C        -2.100137         1.221678        -0.871635
 H        -3.562789        -0.839956        -3.197706
 H        -3.540994         0.786348        -3.096145
 H        -2.114942         0.211653        -3.598381
 H        -3.052155        -0.939437         0.460865
 H        -3.727868        -2.124089        -1.117333
 H        -1.531650        -2.038392        -1.821564
 H        -0.819117         1.860664         0.771876
 H         0.070166         2.021152        -0.913668
 H        -2.803419         1.562159        -0.221265
 H        -2.042770         1.933786        -1.682239
