19
Iteration:  4005
 C        -3.039122        -0.070183        -2.907415
 C        -2.441853        -0.005935        -1.537736
 C        -3.155681        -1.011010        -0.538927
 C        -1.720862        -1.227797        -1.134357
 O        -0.587853        -1.169121        -0.232286
 C        -0.004483         0.032381         0.142212
 O         1.170142         0.108183         0.557638
 C        -0.708767         1.299767        -0.293079
 C        -1.996910         1.350713        -0.870361
 H        -3.348048        -1.093236        -3.298411
 H        -3.886131         0.635269        -2.909562
 H        -2.335251         0.478796        -3.701580
 H        -3.049803        -0.698050         0.531156
 H        -4.092513        -1.532807        -0.811510
 H        -1.479301        -1.992484        -1.885881
 H        -0.640763         1.884604         0.630560
 H        -0.088900         1.726619        -0.925557
 H        -2.813067         1.650706        -0.280961
 H        -1.991741         2.081224        -1.721620
