19
Iteration:  3270
 C        -2.686972         0.022050        -3.044034
 C        -2.421770        -0.051564        -1.535187
 C        -3.266556        -1.045597        -0.549278
 C        -1.672300        -1.204953        -0.938919
 O        -0.723072        -1.093863         0.098435
 C        -0.014951         0.125116         0.083594
 O         1.199323         0.033029        -0.130255
 C        -0.896778         1.321743         0.224107
 C        -2.029240         1.252917        -0.974270
 H        -2.930488        -0.985709        -3.397888
 H        -3.645735         0.399163        -3.179590
 H        -1.821319         0.243907        -3.758778
 H        -3.372434        -0.583173         0.416959
 H        -3.861203        -1.783501        -0.970335
 H        -1.316173        -1.917944        -1.620546
 H        -1.320492         1.197872         1.270278
 H        -0.405785         2.249591         0.196196
 H        -2.940487         1.984165        -0.689504
 H        -1.370935         1.717644        -1.804698
