19
Iteration:  4224charge 0 multiplicity 1
 C        -3.235706        -0.088848        -2.810777
 C        -2.450860        -0.035335        -1.577153
 C        -3.075293        -0.917658        -0.478311
 C        -1.689311        -1.283660        -1.128280
 O        -0.422945        -1.157264        -0.435933
 C         0.104047         0.034035         0.004236
 O         0.978699         0.009131         0.780709
 C        -0.696101         1.448533        -0.091391
 C        -1.934512         1.347952        -1.151519
 H        -3.859839        -0.922132        -2.628384
 H        -3.832716         0.777413        -2.980421
 H        -2.637235        -0.335885        -3.731604
 H        -3.002249        -0.710675         0.602244
 H        -3.945405        -1.486615        -0.774707
 H        -1.740127        -2.215674        -1.759975
 H        -1.021861         1.719301         0.980546
 H         0.047843         2.076587        -0.343532
 H        -2.839125         2.089636        -0.857718
 H        -1.545355         1.899256        -2.073602
