19
Iteration:  2196
 C        -3.354638        -0.155769        -2.888828
 C        -2.496625        -0.044137        -1.630569
 C        -2.886860        -0.815833        -0.330713
 C        -1.672642        -1.215164        -1.125829
 O        -0.366535        -1.035414        -0.624490
 C        -0.006943         0.039973         0.235591
 O         1.069653         0.139173         0.782232
 C        -1.019395         1.164286         0.085121
 C        -1.728811         1.209575        -1.337370
 H        -3.484899        -1.219707        -3.055052
 H        -4.289733         0.332468        -2.717502
 H        -2.828745         0.245331        -3.777134
 H        -2.821547        -0.293593         0.661070
 H        -3.869700        -1.261458        -0.407968
 H        -1.687169        -2.019961        -1.798220
 H        -1.727683         1.251378         0.952684
 H        -0.302846         2.131194         0.063047
 H        -2.450677         2.008491        -1.297454
 H        -1.009906         1.556747        -2.088760
