19
Iteration:  2458charge 0 multiplicity 1
 C        -3.225788        -0.117733        -2.911763
 C        -2.450200        -0.017362        -1.593842
 C        -2.924849        -0.980878        -0.367788
 C        -1.711362        -1.189669        -1.137672
 O        -0.490548        -1.105218        -0.362094
 C         0.003185         0.073559         0.145441
 O         1.075033         0.141006         0.715995
 C        -0.835031         1.292878        -0.067224
 C        -1.897121         1.249304        -1.266791
 H        -3.877523        -1.034699        -2.948278
 H        -3.866567         0.776696        -3.042367
 H        -2.671001        -0.335938        -3.839877
 H        -2.736510        -0.673387         0.660928
 H        -3.730772        -1.631476        -0.587501
 H        -1.585105        -2.068194        -1.816323
 H        -1.447493         1.392952         0.759120
 H        -0.057752         2.152213        -0.041428
 H        -2.741385         2.043205        -1.021433
 H        -1.362204         1.673094        -2.234694
