19
Iteration:   587
 C        -3.132967        -0.072959        -2.930876
 C        -2.461360        -0.039856        -1.524545
 C        -3.087133        -1.020748        -0.510387
 C        -1.740882        -1.278396        -1.031410
 O        -0.650682        -1.111491        -0.143038
 C         0.028653         0.055591         0.104531
 O         1.225781         0.148409         0.370175
 C        -0.832275         1.280804         0.048562
 C        -1.823763         1.375716        -1.208665
 H        -3.624602        -0.991835        -3.114516
 H        -3.691198         0.820603        -3.247722
 H        -2.252723         0.039938        -3.669239
 H        -3.195316        -0.842187         0.574286
 H        -3.991882        -1.622967        -0.862024
 H        -1.508130        -2.122318        -1.777869
 H        -1.470698         1.135811         0.980984
 H        -0.182197         2.038649         0.280001
 H        -2.573590         2.101110        -0.926164
 H        -1.334963         1.838245        -2.087294
