19
Iteration:  4451
 C        -3.056147        -0.068455        -2.914414
 C        -2.447287        -0.066945        -1.514497
 C        -3.102787        -0.919257        -0.465921
 C        -1.711963        -1.246903        -1.014423
 O        -0.566592        -1.078092        -0.271752
 C         0.035488         0.045728         0.072410
 O         1.151013        -0.047861         0.445802
 C        -0.851914         1.347115         0.019347
 C        -1.870231         1.374462        -1.141050
 H        -3.228059        -1.104574        -3.383047
 H        -4.104778         0.349999        -2.898484
 H        -2.382860         0.510252        -3.593311
 H        -3.413937        -0.534861         0.484141
 H        -4.006310        -1.474368        -0.785359
 H        -1.646751        -1.958913        -1.798597
 H        -1.383192         1.312282         0.954856
 H        -0.165667         2.147975        -0.007847
 H        -2.723288         2.048969        -0.930727
 H        -1.453287         1.710363        -2.171491
