19
Iteration:  1301
 C        -3.050861         0.075578        -2.854798
 C        -2.533032        -0.073187        -1.419233
 C        -3.010070        -1.133330        -0.534107
 C        -1.602840        -1.295927        -1.166671
 O        -0.469357        -1.178557        -0.311778
 C        -0.019909         0.156167         0.051520
 O         0.859360         0.219834         0.891849
 C        -0.591564         1.261290        -0.724042
 C        -2.058351         1.304760        -0.767246
 H        -3.137443        -0.902440        -3.426189
 H        -4.003370         0.597574        -3.008630
 H        -2.312545         0.534067        -3.566489
 H        -3.031315        -0.947468         0.626825
 H        -3.946936        -1.725241        -0.825670
 H        -1.463790        -2.048307        -1.920364
 H        -0.133853         2.141412        -0.292082
 H        -0.096514         1.167615        -1.647418
 H        -2.508255         1.361678         0.308970
 H        -2.435014         2.204163        -1.389675
