19
Iteration:  1946
 C        -2.898680         0.097496        -2.915159
 C        -2.548925        -0.049435        -1.428020
 C        -3.128028        -1.228917        -0.607451
 C        -1.621726        -1.263435        -1.115120
 O        -0.669683        -1.119772        -0.113410
 C         0.042711         0.133511         0.038557
 O         1.006971         0.214899         0.790766
 C        -0.541096         1.336264        -0.842916
 C        -2.147095         1.232993        -0.655801
 H        -3.021973        -0.933561        -3.346282
 H        -3.910544         0.412712        -2.893869
 H        -2.145449         0.620790        -3.499475
 H        -3.207071        -1.170930         0.505331
 H        -3.752467        -1.988563        -1.060123
 H        -1.329523        -1.940606        -1.933712
 H        -0.005950         2.253665        -0.546878
 H        -0.083930         1.302932        -1.942764
 H        -2.438109         1.332508         0.424898
 H        -2.620708         2.078726        -1.065452
