19
Iteration:   968
 C        -2.642649        -0.068823        -3.023865
 C        -2.463792        -0.094783        -1.477983
 C        -3.235577        -1.045056        -0.543505
 C        -1.811494        -1.365057        -0.954032
 O        -0.654887        -1.149194        -0.111913
 C        -0.010233         0.065414         0.032866
 O         1.208690         0.145949         0.184659
 C        -0.797243         1.486310        -0.107114
 C        -2.128985         1.320573        -0.833042
 H        -2.574673        -1.134288        -3.460280
 H        -3.676684         0.323878        -3.279687
 H        -1.848655         0.699056        -3.262749
 H        -3.198303        -0.694573         0.516205
 H        -4.101357        -1.845681        -0.777083
 H        -1.543886        -2.158610        -1.574012
 H        -0.866499         1.861277         0.957606
 H        -0.081990         2.164701        -0.464537
 H        -3.060105         1.684992        -0.207827
 H        -2.055560         2.150593        -1.587594
