19
Iteration:  3499charge 0 multiplicity 1
 C        -3.183361         0.181133        -2.759683
 C        -2.512174         0.001437        -1.390458
 C        -2.860920        -1.188888        -0.475964
 C        -1.672696        -1.248430        -1.308285
 O        -0.522631        -1.176209        -0.426858
 C        -0.030710         0.071693         0.041170
 O         0.645538         0.157985         1.083510
 C        -0.407754         1.199036        -0.859542
 C        -1.930309         1.335389        -0.744726
 H        -3.257586        -0.819461        -3.236838
 H        -4.137158         0.667654        -2.735976
 H        -2.367198         0.715484        -3.394148
 H        -2.578969        -1.066768         0.558983
 H        -3.702538        -1.736511        -0.855723
 H        -1.501906        -1.966883        -2.060986
 H         0.163482         2.142338        -0.623506
 H        -0.130796         0.977746        -1.897048
 H        -2.258105         1.660668         0.274566
 H        -2.260438         2.085760        -1.397665
