19
Iteration:  1263charge 0 multiplicity 1
 C        -3.157444        -0.131913        -2.953727
 C        -2.556191        -0.036552        -1.466412
 C        -2.940137        -1.021902        -0.433187
 C        -1.630116        -1.257780        -1.094421
 O        -0.374076        -1.057953        -0.457085
 C         0.046285         0.093084         0.051216
 O         0.867881        -0.014087         0.950240
 C        -0.638372         1.396075        -0.514221
 C        -2.102243         1.351098        -0.914720
 H        -2.940053        -1.129520        -3.341229
 H        -4.209043         0.205581        -2.954026
 H        -2.587695         0.600695        -3.542377
 H        -2.983458        -0.631816         0.520147
 H        -3.774215        -1.632887        -0.657684
 H        -1.505982        -2.119930        -1.830484
 H        -0.463466         2.271549         0.287876
 H        -0.034069         1.677860        -1.553616
 H        -2.628524         1.703086        -0.097615
 H        -2.260484         2.084175        -1.653836
