19
Iteration:  1156
 C        -3.322956        -0.159728        -2.824237
 C        -2.465457        -0.057012        -1.577365
 C        -2.924216        -0.916016        -0.288101
 C        -1.710654        -1.240352        -1.108030
 O        -0.313596        -1.047017        -0.685418
 C        -0.021927         0.098040         0.149663
 O         0.968952         0.118715         0.819607
 C        -0.967215         1.251269         0.068202
 C        -1.714241         1.288094        -1.343700
 H        -3.865162        -1.058497        -2.928381
 H        -4.138201         0.595998        -2.927302
 H        -2.653772        -0.034972        -3.782483
 H        -2.681065        -0.538840         0.637301
 H        -3.842004        -1.418742        -0.355006
 H        -1.773545        -2.023585        -1.931845
 H        -1.643956         1.293229         0.956431
 H        -0.455290         2.095116         0.156189
 H        -2.296312         2.252160        -1.635731
 H        -0.833106         1.108377        -2.103147
