19
Iteration:  2436
 C        -3.080427        -0.129312        -2.880114
 C        -2.529959        -0.031395        -1.546259
 C        -3.034586        -0.935563        -0.392036
 C        -1.701278        -1.252157        -1.040690
 O        -0.447234        -1.179389        -0.346723
 C        -0.020050         0.126206         0.066108
 O         1.118496         0.186026         0.498880
 C        -1.030226         1.254659         0.068365
 C        -1.811146         1.307827        -1.241471
 H        -3.664963        -1.032255        -3.194899
 H        -3.668480         0.788908        -3.106221
 H        -2.209465        -0.195571        -3.562297
 H        -2.991992        -0.530241         0.616522
 H        -3.980364        -1.370085        -0.645966
 H        -1.599857        -2.173823        -1.689438
 H        -1.588144         1.031025         0.897325
 H        -0.341678         2.123982         0.315081
 H        -2.492563         2.262044        -1.319609
 H        -0.932133         1.493723        -2.002913
