19
Iteration:  2904charge 0 multiplicity 1
 C        -3.030621        -0.141759        -3.006745
 C        -2.471748        -0.012687        -1.583911
 C        -3.016164        -0.919863        -0.364615
 C        -1.776864        -1.215064        -1.034604
 O        -0.505401        -1.074726        -0.267066
 C         0.001582         0.071937         0.088238
 O         1.157557         0.077805         0.418199
 C        -0.986160         1.240638         0.117032
 C        -1.864179         1.304206        -1.187063
 H        -3.094434        -1.171723        -3.472582
 H        -4.044927         0.361374        -3.189470
 H        -2.320227         0.393904        -3.647191
 H        -3.020848        -0.341883         0.568909
 H        -3.896579        -1.508379        -0.505572
 H        -1.614772        -2.231906        -1.575203
 H        -1.559468         1.094799         0.986684
 H        -0.510246         2.233758         0.322578
 H        -2.667789         2.124228        -0.994658
 H        -1.193960         1.653220        -2.103258
