19
Iteration:  2605charge 0 multiplicity 1
 C        -3.486222        -0.155660        -2.599455
 C        -2.496057        -0.066694        -1.456626
 C        -2.609482        -0.904122        -0.293839
 C        -1.510696        -1.226354        -1.260956
 O        -0.206080        -1.000333        -0.747537
 C        -0.098181         0.100939         0.159259
 O         0.554958        -0.159549         1.163004
 C        -0.766146         1.427203        -0.333730
 C        -1.762324         1.347579        -1.500983
 H        -4.121817        -1.013899        -2.485738
 H        -4.275254         0.632996        -2.607466
 H        -2.947847        -0.189617        -3.565352
 H        -2.393186        -0.546884         0.821959
 H        -3.574482        -1.458935        -0.408438
 H        -1.639790        -2.162471        -1.937646
 H        -1.431432         1.801970         0.486524
 H         0.023943         2.141938        -0.486255
 H        -2.511538         2.212599        -1.387584
 H        -1.183542         1.447051        -2.486106
