19
Iteration:  1884charge 0 multiplicity 1
 C        -2.674034         0.192357        -2.949989
 C        -2.591707        -0.088129        -1.372365
 C        -3.149510        -1.265136        -0.648980
 C        -1.667021        -1.309315        -0.978984
 O        -0.654763        -1.064545         0.034024
 C        -0.004165         0.162340        -0.020733
 O         1.091833         0.205151         0.541767
 C        -0.652935         1.242519        -0.777571
 C        -2.192989         1.203425        -0.642282
 H        -2.328982        -0.640149        -3.657662
 H        -3.799193         0.392762        -3.266588
 H        -2.258065         1.181745        -3.323739
 H        -3.573215        -1.116054         0.403626
 H        -3.849426        -1.956056        -1.277349
 H        -1.387691        -2.130317        -1.596896
 H        -0.276912         2.174434        -0.320692
 H        -0.401889         1.412934        -1.850448
 H        -2.483830         1.105134         0.451109
 H        -2.673654         2.256221        -0.916244
