19
Iteration:  3040charge 0 multiplicity 1
 C        -3.504621        -0.122175        -2.614268
 C        -2.462125        -0.039138        -1.510003
 C        -2.570293        -0.858545        -0.185267
 C        -1.504774        -1.187263        -1.218684
 O        -0.163305        -1.011901        -0.791699
 C        -0.168485         0.020580         0.122622
 O         0.457554        -0.155036         1.130696
 C        -0.767026         1.411159        -0.292609
 C        -1.731913         1.323780        -1.513284
 H        -3.620021        -1.115496        -3.054287
 H        -4.478572         0.162937        -2.230657
 H        -3.085239         0.502911        -3.504354
 H        -2.557196        -0.265578         0.771503
 H        -3.366074        -1.614712        -0.082372
 H        -1.572869        -2.212491        -1.631730
 H        -1.084840         1.926597         0.696414
 H         0.097140         1.796493        -0.740199
 H        -2.555363         2.065206        -1.428102
 H        -1.201547         1.426919        -2.530243
