19
Iteration:  4457
 C        -3.044944        -0.045951        -2.974184
 C        -2.449401        -0.048595        -1.471456
 C        -3.093264        -0.872998        -0.472322
 C        -1.718851        -1.274002        -1.047391
 O        -0.595337        -1.103546        -0.215386
 C        -0.007076         0.079562         0.053423
 O         1.163076        -0.028645         0.396909
 C        -0.855511         1.326732         0.055941
 C        -1.891327         1.310430        -1.125578
 H        -3.071392        -1.056073        -3.324907
 H        -4.061056         0.323875        -3.034863
 H        -2.486332         0.537405        -3.687234
 H        -3.126501        -0.445260         0.564964
 H        -3.822516        -1.601346        -0.793780
 H        -1.608392        -2.132829        -1.782339
 H        -1.279111         1.437934         1.121379
 H        -0.093641         2.180501        -0.069751
 H        -2.665766         2.071165        -0.978963
 H        -1.366871         1.678365        -1.988720
