19
Iteration:  1346
 C        -3.058487         0.254560        -2.859605
 C        -2.559014        -0.079766        -1.400571
 C        -3.034832        -1.370204        -0.709882
 C        -1.622021        -1.261692        -1.170025
 O        -0.681134        -0.994037         0.017533
 C         0.038965         0.125165         0.015899
 O         0.914211         0.297203         0.789423
 C        -0.470853         1.213282        -0.910272
 C        -2.011756         1.128428        -0.640523
 H        -3.466298        -0.651255        -3.511126
 H        -3.846149         1.026679        -2.831667
 H        -2.183409         0.614530        -3.463852
 H        -3.058127        -1.623482         0.435203
 H        -3.850133        -1.994659        -1.299261
 H        -1.024000        -1.840761        -1.929177
 H         0.078230         2.098702        -0.704229
 H        -0.272795         0.916546        -1.898016
 H        -2.287619         0.918407         0.517564
 H        -2.438865         2.164269        -0.954622
