19
Iteration:  2497charge 0 multiplicity 1
 C        -3.375032        -0.152211        -2.763259
 C        -2.446392        -0.079078        -1.573039
 C        -2.866326        -0.978273        -0.389681
 C        -1.615386        -1.183593        -1.158816
 O        -0.337374        -1.066287        -0.581662
 C        -0.033398         0.067564         0.166268
 O         0.833583         0.042101         1.006785
 C        -0.681947         1.345486        -0.301918
 C        -1.888670         1.316835        -1.298094
 H        -3.609048        -1.208455        -2.864767
 H        -4.223995         0.576156        -2.599323
 H        -2.891519         0.203787        -3.678273
 H        -2.872878        -0.631247         0.665211
 H        -3.781343        -1.599857        -0.671278
 H        -1.651549        -2.096933        -1.812558
 H        -0.982607         1.847975         0.796038
 H         0.013186         2.137219        -0.585009
 H        -2.669283         1.877697        -0.923966
 H        -1.602940         1.822775        -2.151635
