19
Iteration:   112charge 0 multiplicity 1
 C        -2.883168        -0.024653        -2.976213
 C        -2.400926        -0.058922        -1.518028
 C        -3.191706        -1.059457        -0.557749
 C        -1.762912        -1.288775        -0.959736
 O        -0.722163        -1.026038        -0.000187
 C         0.000110         0.138542         0.049927
 O         1.188048         0.090370         0.060802
 C        -0.885918         1.297664         0.155566
 C        -1.816234         1.293048        -1.044864
 H        -3.581023        -0.944154        -3.041656
 H        -3.548644         0.792999        -3.182214
 H        -2.155037        -0.173327        -3.787074
 H        -3.300461        -0.889589         0.593898
 H        -3.957321        -1.755729        -0.901021
 H        -1.430808        -2.130150        -1.648408
 H        -1.421084         1.259185         1.117261
 H        -0.291224         2.159677         0.140987
 H        -2.586231         2.124148        -1.041890
 H        -1.118371         1.549084        -1.859557
