19
Iteration:  3043charge 0 multiplicity 1
 C        -3.498878        -0.121775        -2.628843
 C        -2.463354        -0.072771        -1.517231
 C        -2.551476        -0.860998        -0.175536
 C        -1.503828        -1.163153        -1.214295
 O        -0.197882        -1.018255        -0.804964
 C        -0.167594         0.017368         0.111774
 O         0.471088        -0.145079         1.149735
 C        -0.778716         1.407800        -0.273004
 C        -1.715225         1.318173        -1.514906
 H        -3.575044        -1.116872        -3.066909
 H        -4.512936         0.188216        -2.272248
 H        -3.178761         0.501958        -3.433121
 H        -2.544584        -0.248574         0.693385
 H        -3.346142        -1.634414        -0.073405
 H        -1.571985        -2.239570        -1.670009
 H        -1.072027         2.042197         0.616936
 H         0.192882         1.734975        -0.788791
 H        -2.635331         2.217932        -1.344119
 H        -1.206083         1.452822        -2.480877
