19
Iteration:  1068charge 0 multiplicity 1
 C        -3.083157        -0.049097        -2.897616
 C        -2.443077         0.013154        -1.558649
 C        -3.025486        -1.103943        -0.537240
 C        -1.694373        -1.225497        -1.077772
 O        -0.563918        -1.128201        -0.062871
 C         0.044990         0.106621         0.022280
 O         1.176781         0.068685         0.493342
 C        -0.896071         1.307410        -0.132035
 C        -2.042718         1.355553        -1.145825
 H        -3.413357        -0.992020        -3.313297
 H        -3.881209         0.734551        -2.826115
 H        -2.170335         0.277008        -3.563696
 H        -2.911790        -0.887013         0.557622
 H        -3.736691        -1.866340        -0.794162
 H        -1.472760        -2.085979        -1.779339
 H        -1.089954         1.499140         0.947812
 H        -0.312798         2.051747        -0.413529
 H        -2.793073         2.067084        -0.598420
 H        -1.568356         1.887754        -2.028230
