19
Iteration:    23
 C        -3.036363        -0.199785        -2.995419
 C        -2.569841        -0.025896        -1.541522
 C        -3.177740        -0.823537        -0.354010
 C        -1.790448        -1.159452        -0.892981
 O        -0.442182        -1.076118        -0.432458
 C         0.041641         0.076010         0.080473
 O         1.221635         0.072003         0.451430
 C        -0.998107         1.245695         0.145985
 C        -1.759024         1.272291        -1.230338
 H        -3.189893        -1.264035        -3.242462
 H        -3.967713         0.338728        -3.215751
 H        -2.268063         0.178667        -3.689243
 H        -3.426863        -0.331219         0.542372
 H        -3.953875        -1.569080        -0.609716
 H        -1.798272        -2.106438        -1.417424
 H        -1.720903         1.046568         0.945302
 H        -0.550352         2.187608         0.344265
 H        -2.331800         2.248278        -1.347936
 H        -0.999632         1.302372        -2.012168
