19
Iteration:  4974
 C        -2.771726        -0.151870        -3.072165
 C        -2.475531        -0.029223        -1.561034
 C        -3.268567        -0.848017        -0.548076
 C        -1.863106        -1.207006        -0.852173
 O        -0.617493        -1.090311        -0.051776
 C         0.068799         0.097064         0.087471
 O         1.294773         0.074171         0.036626
 C        -0.890721         1.170473         0.250207
 C        -1.957255         1.341875        -1.046126
 H        -3.347238        -1.066332        -3.287462
 H        -3.440691         0.710582        -3.402266
 H        -1.961495        -0.099669        -3.817292
 H        -3.475878        -0.415708         0.432449
 H        -4.061553        -1.368017        -1.104266
 H        -1.671961        -2.082361        -1.390990
 H        -1.414185         0.818864         1.080928
 H        -0.509059         2.154545         0.377203
 H        -2.889552         1.893050        -0.655249
 H        -1.384174         1.820716        -1.941364
