19
Iteration:   244
 C        -3.305660        -0.096252        -2.829165
 C        -2.470317        -0.002602        -1.572428
 C        -2.882135        -0.889617        -0.307885
 C        -1.669572        -1.232886        -1.164739
 O        -0.435362        -1.157412        -0.509847
 C         0.018758         0.046118         0.124973
 O         1.047089         0.062920         0.772926
 C        -0.946555         1.267252        -0.052793
 C        -1.773583         1.337109        -1.320957
 H        -3.870864        -1.070904        -2.728046
 H        -4.059555         0.632486        -2.936003
 H        -2.722069         0.042514        -3.740623
 H        -2.753084        -0.263322         0.674300
 H        -3.884704        -1.445939        -0.414623
 H        -1.698813        -2.142920        -1.824066
 H        -1.607661         1.178633         0.765466
 H        -0.427759         2.205275         0.120190
 H        -2.444586         2.208897        -1.314969
 H        -1.183824         1.599442        -2.185145
