19
Iteration:  2547charge 0 multiplicity 1
 C        -3.426530        -0.152526        -2.652823
 C        -2.421255        -0.087151        -1.536984
 C        -2.706932        -0.908649        -0.262223
 C        -1.567578        -1.223514        -1.170183
 O        -0.229606        -1.004640        -0.701258
 C        -0.029323         0.083555         0.064139
 O         0.498555        -0.129944         1.150706
 C        -0.663731         1.396819        -0.377257
 C        -1.871238         1.364661        -1.402116
 H        -3.336000        -1.149641        -3.118090
 H        -4.312304         0.083649        -2.120096
 H        -3.308520         0.590287        -3.490324
 H        -2.414133        -0.625367         0.714404
 H        -3.558905        -1.593359        -0.341835
 H        -1.581493        -2.033960        -1.827764
 H        -0.833964         1.946409         0.415031
 H         0.319948         1.892237        -0.705738
 H        -2.712666         2.134341        -1.008513
 H        -1.554843         1.810748        -2.503463
