19
Iteration:  2485
 C        -3.349449        -0.137669        -2.788551
 C        -2.458561        -0.044071        -1.573377
 C        -2.930364        -0.917584        -0.478760
 C        -1.602931        -1.290604        -1.129789
 O        -0.322941        -1.080474        -0.478194
 C         0.009942         0.101840         0.120234
 O         0.900679         0.000542         0.931809
 C        -0.727322         1.436408        -0.223533
 C        -1.936515         1.321761        -1.274222
 H        -3.907197        -1.075384        -2.844517
 H        -4.224617         0.533293        -2.680366
 H        -2.866680        -0.066811        -3.786511
 H        -2.854656        -0.595574         0.568117
 H        -3.695126        -1.760847        -0.660652
 H        -1.468381        -2.167745        -1.748013
 H        -1.325905         1.752304         0.784957
 H         0.188968         2.044745        -0.431616
 H        -2.687802         1.917183        -0.926350
 H        -1.675543         1.643814        -2.201846
