19
Iteration:  3746
 C        -3.035481        -0.036583        -2.930784
 C        -2.428779         0.008746        -1.542579
 C        -3.072115        -0.989054        -0.524782
 C        -1.788408        -1.235365        -0.980638
 O        -0.589625        -1.171977        -0.192380
 C         0.013980         0.019428         0.076587
 O         1.191255         0.078104         0.372052
 C        -0.837415         1.284674         0.011153
 C        -1.914174         1.379580        -1.095959
 H        -3.648149        -0.953265        -2.912562
 H        -3.666539         0.956004        -3.205098
 H        -2.335126        -0.144072        -3.779958
 H        -3.243398        -0.796787         0.513875
 H        -3.907426        -1.505552        -1.033888
 H        -1.466243        -1.992079        -1.657518
 H        -1.339142         1.499734         0.986210
 H        -0.158222         2.095626        -0.120539
 H        -2.819813         1.921978        -0.670284
 H        -1.511464         1.825286        -2.000293
