19
Iteration:   480charge 0 multiplicity 1
 C        -3.118563        -0.187040        -2.956055
 C        -2.489138        -0.018685        -1.568705
 C        -3.074143        -0.961243        -0.443827
 C        -1.763976        -1.237575        -1.083567
 O        -0.601083        -1.061819        -0.283371
 C         0.081907         0.103061         0.057042
 O         1.212708         0.012689         0.534635
 C        -0.810303         1.354271         0.071633
 C        -1.889335         1.354994        -1.180054
 H        -3.552447        -1.223535        -3.151219
 H        -4.044343         0.495030        -3.045753
 H        -2.339278         0.012783        -3.695041
 H        -3.151785        -0.524642         0.571632
 H        -3.932295        -1.605470        -0.814330
 H        -1.636049        -2.220420        -1.615335
 H        -1.304645         1.323215         1.126650
 H        -0.100458         2.394792         0.045516
 H        -2.765621         2.019885        -0.933377
 H        -1.413448         1.806728        -2.116615
