19
Iteration:  3901
 C        -3.117849         0.326814        -2.692975
 C        -2.538844        -0.027244        -1.318751
 C        -3.009914        -1.262840        -0.659217
 C        -1.602848        -1.317906        -1.202234
 O        -0.530292        -1.141984        -0.172928
 C         0.020319         0.096593        -0.035881
 O         0.706866         0.282177         0.950590
 C        -0.458555         1.080995        -1.014265
 C        -1.912913         1.245345        -0.722326
 H        -3.708261        -0.401043        -3.267462
 H        -3.832952         1.233738        -2.531760
 H        -2.298181         0.663588        -3.341170
 H        -3.307384        -1.350312         0.363043
 H        -3.685883        -1.764212        -1.306182
 H        -1.287143        -2.107292        -1.921643
 H         0.087515         2.015264        -0.688033
 H        -0.144327         0.806291        -2.117007
 H        -2.039685         1.414201         0.383844
 H        -2.396530         2.132943        -1.097319
