19
Iteration:  4504
 C        -2.862225        -0.026758        -2.903496
 C        -2.381670        -0.020418        -1.517186
 C        -3.179319        -0.815671        -0.556956
 C        -1.805852        -1.225973        -0.846024
 O        -0.532440        -1.186340        -0.085823
 C         0.020993         0.025486        -0.020433
 O         1.203953         0.079615         0.079586
 C        -1.091766         1.194405         0.156966
 C        -1.847449         1.322378        -1.086349
 H        -2.944864        -1.103822        -3.275710
 H        -3.841450         0.508178        -3.070918
 H        -2.251487         0.537571        -3.574431
 H        -3.448425        -0.440865         0.414398
 H        -3.897930        -1.442313        -1.110200
 H        -1.906320        -2.152858        -1.362546
 H        -1.678399         0.843058         0.939404
 H        -0.602856         2.118496         0.493814
 H        -2.511306         2.163750        -1.034749
 H        -1.110123         1.817266        -1.892517
