19
Iteration:  2958
 C        -3.388852        -0.109098        -2.823692
 C        -2.459584        -0.037489        -1.578600
 C        -2.863945        -0.893600        -0.307747
 C        -1.615325        -1.198166        -1.151117
 O        -0.364653        -1.078767        -0.589906
 C         0.027810         0.050018         0.127756
 O         0.876193         0.032032         0.968826
 C        -0.862658         1.323949        -0.161692
 C        -1.757264         1.273604        -1.367983
 H        -4.127066        -0.935727        -2.658969
 H        -3.888081         0.907859        -2.883043
 H        -2.943600        -0.132989        -3.802709
 H        -2.622042        -0.585900         0.677293
 H        -3.575336        -1.714949        -0.424090
 H        -1.648474        -2.235173        -1.678366
 H        -1.448804         1.319885         0.709599
 H        -0.348480         2.336931        -0.022988
 H        -2.436070         2.009821        -1.296192
 H        -1.326461         1.453492        -2.373610
