19
Iteration:  1296charge 0 multiplicity 1
 C        -3.050426         0.042204        -2.898542
 C        -2.548041        -0.042769        -1.430537
 C        -2.968325        -1.116775        -0.501928
 C        -1.634400        -1.270332        -1.159018
 O        -0.474819        -1.167246        -0.349442
 C        -0.042526         0.094731         0.080140
 O         0.878693         0.221111         0.904218
 C        -0.606452         1.292812        -0.705034
 C        -2.067411         1.279604        -0.779852
 H        -3.171668        -0.948944        -3.291809
 H        -4.061569         0.478412        -3.023858
 H        -2.290725         0.633814        -3.456735
 H        -2.933228        -0.797956         0.473885
 H        -3.767274        -1.741815        -0.749561
 H        -1.506567        -2.056186        -1.934195
 H        -0.105436         2.187034        -0.136093
 H        -0.004245         1.116957        -1.723428
 H        -2.430785         1.389580         0.188099
 H        -2.410540         2.111540        -1.321519
