19
Iteration:  1761charge 0 multiplicity 1
 C        -2.825579        -0.053518        -2.875751
 C        -2.534374        -0.055030        -1.491154
 C        -3.072206        -1.056579        -0.524881
 C        -1.694461        -1.242091        -1.033760
 O        -0.513396        -1.106239        -0.305968
 C         0.007520         0.120175         0.074960
 O         1.076000         0.117557         0.612019
 C        -0.765230         1.360850        -0.419631
 C        -2.200843         1.263429        -0.842406
 H        -2.795264        -1.137670        -3.293830
 H        -3.811606         0.322910        -3.212932
 H        -1.996896         0.410649        -3.427482
 H        -3.237718        -0.753921         0.489302
 H        -3.811540        -1.685270        -1.002964
 H        -1.540193        -2.116573        -1.719823
 H        -0.467633         2.158591         0.239614
 H        -0.168626         1.596712        -1.204838
 H        -2.817546         1.395397         0.098048
 H        -2.557561         2.168691        -1.354308
