19
Iteration:  4100charge 0 multiplicity 1
 C        -2.978554        -0.043419        -2.878677
 C        -2.344553        -0.037884        -1.532872
 C        -3.102377        -0.827904        -0.481229
 C        -1.739179        -1.269980        -1.017068
 O        -0.587889        -1.180841        -0.212238
 C        -0.032935         0.080346         0.102658
 O         1.189388         0.076012         0.219799
 C        -1.003920         1.234070         0.112915
 C        -1.841311         1.305932        -1.145975
 H        -3.200673        -1.051823        -3.290592
 H        -3.836528         0.642046        -2.945657
 H        -2.243971         0.366250        -3.515794
 H        -3.105961        -0.449789         0.580036
 H        -3.921367        -1.552190        -0.715635
 H        -1.806781        -2.218836        -1.503691
 H        -1.705511         1.105778         0.955984
 H        -0.362156         2.247892         0.257555
 H        -2.772558         2.007441        -0.756210
 H        -1.371040         1.868013        -1.962809
