19
Iteration:   101
 C        -2.899865        -0.057004        -2.952546
 C        -2.422446        -0.030555        -1.505694
 C        -3.118450        -0.972518        -0.517269
 C        -1.739644        -1.311882        -0.991197
 O        -0.730941        -1.126799         0.040092
 C         0.000210         0.116295        -0.029937
 O         1.206490         0.139656         0.075129
 C        -0.961749         1.276854         0.158650
 C        -1.811690         1.286817        -1.084517
 H        -3.570151        -0.960594        -3.190125
 H        -3.422800         0.846332        -3.205549
 H        -2.008741        -0.080825        -3.594220
 H        -3.187897        -0.519505         0.518607
 H        -4.027165        -1.424468        -0.907619
 H        -1.441074        -2.092725        -1.746062
 H        -1.493434         0.988667         1.086666
 H        -0.542570         2.214334         0.285359
 H        -2.571587         2.114485        -0.970062
 H        -1.124744         1.597665        -1.902500
