19
Iteration:  4568
 C        -2.782479        -0.083470        -2.935938
 C        -2.367795         0.008914        -1.484623
 C        -3.157701        -0.747761        -0.418373
 C        -1.813749        -1.217130        -0.908368
 O        -0.497830        -1.248115        -0.237261
 C        -0.054531         0.027777         0.038487
 O         1.129925         0.117262         0.121644
 C        -1.069591         1.197309         0.164967
 C        -1.869528         1.337801        -1.137127
 H        -3.688446        -0.687537        -3.145575
 H        -3.012006         0.960454        -3.216433
 H        -1.956057        -0.419666        -3.485193
 H        -3.228842        -0.444391         0.625730
 H        -3.981415        -1.454230        -0.568094
 H        -1.766812        -2.150986        -1.416640
 H        -1.825394         0.800192         0.942139
 H        -0.472553         2.120345         0.554604
 H        -2.708948         2.017277        -1.105347
 H        -1.307285         1.655963        -2.024653
