19
Iteration:  4999charge 0 multiplicity 1
 C        -2.800489        -0.056454        -2.941247
 C        -2.452670        -0.013067        -1.474815
 C        -3.254496        -0.857053        -0.469799
 C        -1.736561        -1.184296        -0.907171
 O        -0.608024        -1.247521        -0.077157
 C         0.039632         0.067115        -0.060227
 O         1.213073         0.081335         0.206469
 C        -0.939661         1.219707         0.051450
 C        -1.926665         1.372601        -1.114611
 H        -2.844491        -1.074438        -3.231423
 H        -3.712018         0.394631        -3.197177
 H        -2.094270         0.418031        -3.616831
 H        -3.574991        -0.287849         0.405463
 H        -3.977173        -1.578198        -0.908995
 H        -1.655431        -2.018653        -1.655394
 H        -1.484966         0.917021         0.981164
 H        -0.471530         2.175665         0.134577
 H        -2.879368         2.021028        -0.873446
 H        -1.354029         1.691788        -1.959681
