19
Iteration:  3300charge 0 multiplicity 1
 C        -2.701907        -0.029289        -2.935670
 C        -2.399305        -0.025315        -1.415538
 C        -3.147286        -1.119191        -0.661808
 C        -1.680239        -1.311541        -0.994302
 O        -0.823370        -1.112075         0.108876
 C         0.005855         0.062003        -0.054691
 O         1.177426         0.067202         0.047058
 C        -0.801885         1.355109        -0.013757
 C        -2.085088         1.462739        -0.919311
 H        -3.237259        -0.960154        -3.120954
 H        -3.465296         0.761428        -3.113204
 H        -1.861185         0.062186        -3.641938
 H        -3.427711        -1.009088         0.445738
 H        -3.941691        -1.716499        -1.140249
 H        -1.196953        -1.982309        -1.788747
 H        -1.147023         1.125450         1.048470
 H        -0.121635         2.170010        -0.060707
 H        -2.893403         2.003366        -0.366749
 H        -1.882785         2.114514        -1.668685
