19
Iteration:   138charge 0 multiplicity 1
 C        -2.929065        -0.033817        -2.940230
 C        -2.516693        -0.040027        -1.489335
 C        -3.158936        -1.040461        -0.608273
 C        -1.716060        -1.295719        -0.971447
 O        -0.652142        -1.139708         0.021332
 C         0.029559         0.139876         0.093901
 O         1.235500         0.032690         0.146647
 C        -0.834811         1.388671         0.038944
 C        -1.937836         1.327066        -1.061317
 H        -3.304675        -0.977451        -3.362041
 H        -3.691112         0.749949        -3.083468
 H        -2.002980        -0.032307        -3.579447
 H        -3.644622        -0.717983         0.349816
 H        -3.966276        -1.665209        -1.083499
 H        -1.433468        -1.986857        -1.770885
 H        -1.421547         1.469602         1.142577
 H        -0.187794         2.398255        -0.158903
 H        -2.742867         1.969292        -0.721111
 H        -1.392860         1.739473        -2.014307
