19
Iteration:  2648
 C        -3.440836        -0.119658        -2.773550
 C        -2.525068        -0.020734        -1.545271
 C        -2.797831        -0.852788        -0.339149
 C        -1.627358        -1.273003        -1.163892
 O        -0.263359        -1.040228        -0.702119
 C        -0.041296         0.046062         0.178146
 O         0.858840         0.057549         0.989982
 C        -0.920703         1.337507        -0.090228
 C        -1.714852         1.225439        -1.417073
 H        -4.135367        -0.935411        -2.802890
 H        -4.058458         0.765032        -2.794752
 H        -2.677373        -0.211729        -3.545710
 H        -2.437462        -0.514887         0.718460
 H        -3.612055        -1.578371        -0.422431
 H        -1.573502        -2.277760        -1.716027
 H        -1.509408         1.450290         0.724407
 H        -0.222228         2.149089        -0.014282
 H        -2.502059         2.102462        -1.317851
 H        -1.203850         1.248916        -2.471926
