19
Iteration:  4430
 C        -3.167132        -0.057963        -2.879510
 C        -2.481560         0.047772        -1.483398
 C        -3.148107        -0.912273        -0.461537
 C        -1.783331        -1.213355        -1.076933
 O        -0.444421        -1.149469        -0.407794
 C         0.130779         0.044688         0.071578
 O         1.152054         0.027371         0.686671
 C        -0.838347         1.246959        -0.074108
 C        -1.852205         1.390474        -1.223756
 H        -3.571451        -1.126157        -2.863245
 H        -4.137688         0.486238        -3.004001
 H        -2.529847         0.067896        -3.815727
 H        -3.211720        -0.816118         0.618895
 H        -3.841518        -1.741528        -0.762892
 H        -1.866582        -2.038649        -1.755434
 H        -1.423902         1.082005         0.931946
 H        -0.266409         2.135070         0.023691
 H        -2.595294         2.165712        -0.932243
 H        -1.410100         1.771551        -2.219636
