19
Iteration:  3376
 C        -2.948437         0.021101        -2.906320
 C        -2.480442         0.008587        -1.482949
 C        -3.125638        -1.094610        -0.587286
 C        -1.746641        -1.218199        -1.094950
 O        -0.555141        -1.130696        -0.246316
 C         0.024848         0.021884         0.058458
 O         1.042767         0.105099         0.651797
 C        -0.582300         1.312462        -0.481565
 C        -2.136691         1.289324        -0.767324
 H        -2.870682        -0.983416        -3.302292
 H        -3.950691         0.513424        -3.057871
 H        -2.216136         0.678898        -3.422969
 H        -3.257511        -0.749367         0.509611
 H        -3.979741        -1.679317        -0.986750
 H        -1.537108        -2.116436        -1.779610
 H        -0.332940         2.066691         0.376532
 H         0.022643         1.620734        -1.300188
 H        -2.618327         1.429967         0.198250
 H        -2.344847         2.124821        -1.422992
