19
Iteration:  2734
 C        -2.833776        -0.060777        -3.041512
 C        -2.468937        -0.054750        -1.533201
 C        -3.114066        -0.949587        -0.407062
 C        -1.730960        -1.252260        -0.931624
 O        -0.580103        -1.130424        -0.070637
 C         0.004178         0.124667         0.042740
 O         1.198129         0.109006         0.140142
 C        -0.996821         1.230078         0.145556
 C        -1.935272         1.355204        -1.136793
 H        -2.843538        -1.083268        -3.526480
 H        -3.801180         0.364204        -3.362128
 H        -2.051700         0.456661        -3.735160
 H        -3.353231        -0.499549         0.638528
 H        -3.906727        -1.661369        -0.706884
 H        -1.792414        -2.256374        -1.469885
 H        -1.813608         0.881628         0.955040
 H        -0.549705         2.237708         0.358128
 H        -2.711916         2.047105        -0.740212
 H        -1.373747         1.732958        -2.033051
