19
Iteration:  4223
 C        -3.226990        -0.085517        -2.816516
 C        -2.453978        -0.033559        -1.574530
 C        -3.065315        -0.917512        -0.479106
 C        -1.696225        -1.273211        -1.129732
 O        -0.426327        -1.165696        -0.433026
 C         0.096851         0.037232         0.011130
 O         0.980093         0.024710         0.769794
 C        -0.692483         1.424343        -0.083908
 C        -1.934209         1.345543        -1.155544
 H        -3.877468        -0.925387        -2.647264
 H        -3.838509         0.753926        -2.967935
 H        -2.644873        -0.363512        -3.691797
 H        -3.007409        -0.699929         0.588756
 H        -3.957552        -1.448884        -0.770771
 H        -1.737083        -2.210730        -1.771427
 H        -1.015459         1.701023         1.001093
 H         0.054265         2.087179        -0.332899
 H        -2.824614         2.102207        -0.849647
 H        -1.560019         1.873617        -2.057607
