19
Iteration:  3770charge 0 multiplicity 1
 C        -3.062305        -0.017781        -2.967184
 C        -2.497958        -0.051273        -1.492523
 C        -3.119410        -0.950880        -0.543096
 C        -1.700292        -1.285771        -1.067850
 O        -0.562460        -1.200054        -0.227827
 C         0.033367         0.056089         0.070493
 O         1.160869         0.053400         0.557077
 C        -0.716349         1.397879        -0.176860
 C        -1.994921         1.288392        -0.979603
 H        -3.484548        -1.004914        -3.211538
 H        -3.863160         0.848272        -2.918717
 H        -2.407058         0.414436        -3.744078
 H        -3.262457        -0.508549         0.418523
 H        -4.040368        -1.393403        -0.921342
 H        -1.472622        -2.182795        -1.682834
 H        -0.820993         1.957214         0.789864
 H        -0.055078         1.922792        -0.733990
 H        -2.806907         1.711291        -0.359847
 H        -1.885113         1.918021        -1.869195
