19
Iteration:   885charge 0 multiplicity 1
 C        -2.953664        -0.009880        -2.856058
 C        -2.435155        -0.056734        -1.545267
 C        -3.097116        -1.204303        -0.657923
 C        -1.646448        -1.288087        -1.073127
 O        -0.672285        -1.036472        -0.057286
 C         0.044395         0.113722         0.065638
 O         1.168113         0.054202         0.478321
 C        -0.701563         1.427342        -0.266857
 C        -2.164171         1.304943        -0.886890
 H        -3.440922        -0.895569        -3.121437
 H        -3.680164         0.787107        -2.827422
 H        -2.375465         0.124642        -3.777275
 H        -3.342027        -0.940587         0.328871
 H        -3.936476        -1.710922        -1.131665
 H        -1.279623        -2.077145        -1.849593
 H        -0.495541         2.059770         0.568840
 H        -0.154982         1.763423        -1.176302
 H        -2.951844         1.620854        -0.227010
 H        -2.053953         2.124753        -1.716118
