19
Iteration:  2787
 C        -2.588077        -0.129562        -3.014935
 C        -2.314146        -0.019480        -1.495656
 C        -3.278438        -0.998921        -0.582385
 C        -1.804501        -1.313318        -0.837701
 O        -0.640098        -1.185809         0.070598
 C        -0.051452         0.053571         0.058920
 O         1.090783         0.212401        -0.236297
 C        -0.945730         1.251703         0.256676
 C        -1.968632         1.473713        -0.952853
 H        -3.310998        -0.950013        -3.372024
 H        -3.123539         0.756889        -3.375595
 H        -1.624949        -0.415355        -3.561681
 H        -3.567447        -0.672247         0.454757
 H        -3.780436        -1.825872        -1.036886
 H        -1.574393        -2.006145        -1.751993
 H        -1.525450         1.366349         1.323565
 H        -0.321390         2.209417         0.360955
 H        -2.827165         2.015835        -0.758502
 H        -1.371389         1.870920        -1.674108
