19
Iteration:  1527
 C        -3.111473        -0.094563        -2.905079
 C        -2.412926        -0.029895        -1.565430
 C        -3.005614        -1.120768        -0.602402
 C        -1.606557        -1.220934        -1.109975
 O        -0.640635        -1.110574        -0.130949
 C         0.008709         0.070108         0.083907
 O         1.142443         0.156490         0.622731
 C        -0.703752         1.368691        -0.279590
 C        -2.086248         1.277480        -0.959316
 H        -3.326084        -1.116594        -3.273055
 H        -4.180979         0.359381        -2.787981
 H        -2.540273         0.498697        -3.767661
 H        -3.267685        -0.728768         0.419949
 H        -3.747414        -1.838464        -1.129027
 H        -1.407480        -1.955512        -1.906796
 H        -0.674629         1.996923         0.709432
 H         0.071179         1.819380        -0.996005
 H        -3.015891         1.659604        -0.248939
 H        -2.143992         2.153782        -1.673060
