19
Iteration:   583
 C        -3.107444        -0.050283        -2.900908
 C        -2.459898        -0.040894        -1.523962
 C        -3.132568        -1.019463        -0.502348
 C        -1.736517        -1.284347        -1.042968
 O        -0.609564        -1.110532        -0.149044
 C         0.036387         0.081095         0.083396
 O         1.216964         0.135812         0.355313
 C        -0.896794         1.268464         0.083692
 C        -1.786269         1.365572        -1.219553
 H        -3.586538        -1.087411        -3.107994
 H        -3.788674         0.825460        -3.075372
 H        -2.260718        -0.085702        -3.727935
 H        -3.344946        -0.758196         0.511792
 H        -3.953251        -1.490774        -0.907159
 H        -1.470516        -2.161577        -1.721237
 H        -1.531737         1.205446         0.919035
 H        -0.125982         2.073721         0.262397
 H        -2.680492         2.096284        -0.969809
 H        -1.197483         1.724311        -2.061173
