19
Iteration:  1802
 C        -3.003417         0.059554        -2.963981
 C        -2.499362        -0.047060        -1.498517
 C        -3.074303        -1.210504        -0.655602
 C        -1.644622        -1.316006        -1.044486
 O        -0.669992        -1.043273         0.004993
 C         0.092715         0.097820         0.038595
 O         1.178685         0.204477         0.511320
 C        -0.676320         1.312795        -0.361711
 C        -2.179795         1.227967        -0.892124
 H        -3.531613        -0.795385        -3.360991
 H        -3.504149         0.963136        -3.177590
 H        -1.982709         0.095675        -3.360869
 H        -3.193144        -1.015635         0.341258
 H        -3.789019        -1.870751        -1.055665
 H        -1.399979        -2.194465        -1.690449
 H        -0.777617         1.947615         0.535342
 H        -0.068443         2.114359        -1.149269
 H        -2.962078         1.295070        -0.039601
 H        -2.332517         1.974884        -1.608764
