19
Iteration:  2839
 C        -2.656606        -0.050104        -3.053920
 C        -2.379236        -0.065726        -1.536535
 C        -3.156539        -0.977792        -0.548321
 C        -1.785007        -1.291943        -0.824061
 O        -0.675923        -1.169685         0.098464
 C        -0.051725         0.097646        -0.002835
 O         1.144227         0.168083        -0.200433
 C        -1.001460         1.277251         0.277622
 C        -1.902971         1.298048        -0.954549
 H        -2.992253        -1.088523        -3.301977
 H        -3.406097         0.756691        -3.251029
 H        -1.810884         0.318814        -3.612450
 H        -3.354450        -0.352585         0.356353
 H        -3.967678        -1.444616        -0.996442
 H        -1.631320        -2.197146        -1.542851
 H        -1.548103         1.066288         1.153252
 H        -0.592416         2.316509         0.447492
 H        -2.978435         1.884749        -1.032134
 H        -1.232925         1.898523        -1.733611
