19
Iteration:  3870charge 0 multiplicity 1
 C        -3.179268         0.325921        -2.825341
 C        -2.541165        -0.038034        -1.421479
 C        -2.946427        -1.310271        -0.540226
 C        -1.662572        -1.307104        -1.233592
 O        -0.619852        -1.129968        -0.181875
 C         0.082205         0.103704        -0.019851
 O         0.747797         0.255896         1.000972
 C        -0.393584         1.164341        -0.985421
 C        -1.930896         1.201962        -0.700017
 H        -3.741143        -0.433886        -3.464914
 H        -3.902137         1.189136        -2.552073
 H        -2.336093         0.756147        -3.447183
 H        -3.068782        -0.999733         0.487414
 H        -3.767976        -1.870267        -0.966785
 H        -1.337720        -2.029354        -2.015520
 H         0.157849         2.027083        -0.652128
 H        -0.113615         0.984063        -1.964923
 H        -1.940842         1.086122         0.359946
 H        -2.373128         2.175042        -1.008626
