19
Iteration:  1929
 C        -2.825643         0.167070        -2.954854
 C        -2.548199        -0.083881        -1.434497
 C        -3.146510        -1.232406        -0.604910
 C        -1.730555        -1.289480        -0.987126
 O        -0.581276        -1.104993        -0.049674
 C         0.053660         0.127486        -0.091240
 O         0.935008         0.288355         0.704688
 C        -0.593955         1.259513        -0.821540
 C        -2.047377         1.133234        -0.616089
 H        -2.468641        -0.668730        -3.558261
 H        -3.928677         0.513324        -3.234210
 H        -2.125928         1.062388        -3.164783
 H        -3.445553        -1.000193         0.401673
 H        -3.974396        -1.815769        -1.130101
 H        -1.444977        -1.995193        -1.747281
 H        -0.172446         2.207923        -0.474349
 H        -0.319375         1.258117        -1.850466
 H        -2.301842         0.997819         0.434688
 H        -2.645662         2.115849        -0.867110
