19
Iteration:  3165charge 0 multiplicity 1
 C        -3.067357        -0.109682        -2.926957
 C        -2.489448        -0.058625        -1.512192
 C        -3.126878        -0.849737        -0.462163
 C        -1.736473        -1.281392        -0.973539
 O        -0.429934        -1.124172        -0.392326
 C         0.062194         0.098873         0.138560
 O         1.192991         0.121628         0.525601
 C        -1.014906         1.280870         0.037255
 C        -1.850370         1.262087        -1.233853
 H        -3.827548        -0.906197        -2.885086
 H        -3.493796         0.886126        -3.192671
 H        -2.442685        -0.213258        -3.743063
 H        -3.302669        -0.538643         0.578950
 H        -3.908701        -1.485873        -0.821767
 H        -1.643833        -2.152328        -1.535617
 H        -1.752564         1.145853         0.824732
 H        -0.434877         2.246438         0.284421
 H        -2.610530         1.992043        -1.184994
 H        -1.324028         1.543919        -2.113317
