19
Iteration:  3597
 C        -3.101095        -0.008055        -2.859695
 C        -2.392776        -0.057763        -1.493525
 C        -3.119361        -1.098906        -0.516596
 C        -1.738520        -1.294011        -1.075958
 O        -0.548540        -1.182466        -0.233938
 C         0.000252         0.009982        -0.012677
 O         1.065117         0.052661         0.598376
 C        -0.714263         1.404703        -0.224647
 C        -1.897664         1.471460        -1.040267
 H        -3.670517        -0.917792        -3.057623
 H        -3.804964         0.748435        -2.809830
 H        -2.407832         0.184672        -3.707417
 H        -3.090656        -0.689043         0.511572
 H        -4.017736        -1.510406        -0.909735
 H        -1.394572        -2.060460        -1.784531
 H        -1.106044         1.650182         0.820768
 H        -0.003474         2.177640        -0.349304
 H        -2.744899         1.947900        -0.757308
 H        -1.684012         1.993985        -1.953002
