19
Iteration:   826charge 0 multiplicity 1
 C        -2.944903         0.113686        -2.831173
 C        -2.550212        -0.067759        -1.425334
 C        -3.077862        -1.089079        -0.597055
 C        -1.669660        -1.285423        -1.115295
 O        -0.532319        -1.127831        -0.269519
 C         0.061390         0.201545         0.054942
 O         0.930712         0.133133         0.870955
 C        -0.582284         1.258528        -0.827432
 C        -2.106669         1.210865        -0.701039
 H        -2.873110        -0.822815        -3.309973
 H        -4.016563         0.249327        -2.804900
 H        -2.475078         0.962133        -3.286498
 H        -3.102769        -0.964997         0.545355
 H        -3.864460        -1.693465        -1.102134
 H        -1.355344        -1.844220        -1.939223
 H        -0.166629         2.318726        -0.654656
 H        -0.320134         1.084081        -2.002778
 H        -2.353533         1.083419         0.412220
 H        -2.631999         2.021716        -1.005905
