19
Iteration:  1493charge 0 multiplicity 1
 C        -3.027591         0.044896        -2.972302
 C        -2.536701        -0.117531        -1.480465
 C        -3.000235        -1.260473        -0.550732
 C        -1.613068        -1.317550        -1.039555
 O        -0.671353        -1.077365        -0.101190
 C         0.040969         0.109041         0.066072
 O         1.158767         0.150597         0.540358
 C        -0.716403         1.386362        -0.283745
 C        -2.114233         1.333182        -0.989161
 H        -3.575375        -0.832110        -3.395279
 H        -3.695386         0.980684        -3.162720
 H        -2.136634         0.221401        -3.702527
 H        -3.258121        -0.941010         0.470668
 H        -3.715457        -1.777730        -1.169811
 H        -1.244005        -2.012256        -1.793639
 H        -0.688917         1.829452         0.767481
 H        -0.161318         2.106011        -0.875265
 H        -2.896096         1.655845        -0.143685
 H        -2.044797         2.044804        -1.861787
