19
Iteration:  4378charge 0 multiplicity 1
 C        -3.375514        -0.016561        -2.710668
 C        -2.360167        -0.062252        -1.547483
 C        -2.809307        -0.855168        -0.293365
 C        -1.649457        -1.309463        -1.089666
 O        -0.321453        -1.049803        -0.682735
 C        -0.062927         0.038286         0.124319
 O         0.887837        -0.098631         0.822197
 C        -0.990303         1.332826        -0.049526
 C        -1.701262         1.337616        -1.437876
 H        -4.189145        -0.647350        -2.823725
 H        -3.775616         0.958593        -2.721738
 H        -2.769348        -0.125820        -3.623865
 H        -2.671892        -0.482603         0.728172
 H        -3.890575        -1.127811        -0.343587
 H        -1.848888        -2.247371        -1.558472
 H        -1.717396         1.148863         0.801006
 H        -0.422752         2.239488         0.096137
 H        -2.526982         2.093064        -1.371797
 H        -1.075372         1.560416        -2.218235
