19
Iteration:  3345
 C        -2.889936         0.041188        -3.024181
 C        -2.432851        -0.062074        -1.564063
 C        -3.180563        -1.108398        -0.583631
 C        -1.815053        -1.241631        -0.991316
 O        -0.605839        -1.090375        -0.085786
 C         0.070516         0.085894         0.012981
 O         1.250795         0.003111         0.422725
 C        -0.710208         1.402858        -0.188116
 C        -2.166614         1.279854        -0.870107
 H        -3.164530        -0.894730        -3.488351
 H        -3.683107         0.765312        -3.187355
 H        -1.986960         0.441795        -3.612833
 H        -3.322200        -0.662647         0.435354
 H        -4.004977        -1.768172        -0.864218
 H        -1.551619        -2.178416        -1.498368
 H        -0.863897         1.844226         0.869468
 H        -0.135309         2.027538        -0.821081
 H        -3.003620         1.534164        -0.072087
 H        -2.324444         2.094883        -1.498365
