19
Iteration:  1974charge 0 multiplicity 1
 C        -3.165806         0.015717        -2.879424
 C        -2.550879        -0.047915        -1.457700
 C        -2.988588        -1.202905        -0.624708
 C        -1.518407        -1.208155        -1.145563
 O        -0.609301        -1.076604        -0.121429
 C         0.007014         0.132915         0.079260
 O         0.951664         0.119038         0.813659
 C        -0.531282         1.325169        -0.648704
 C        -2.084464         1.285119        -0.843679
 H        -3.614538        -0.945418        -2.997725
 H        -4.011990         0.778349        -2.898978
 H        -2.383981         0.150646        -3.681920
 H        -3.012660        -1.339077         0.450896
 H        -3.611531        -1.933527        -1.078267
 H        -1.069804        -1.707214        -2.041629
 H        -0.104830         2.216198        -0.139224
 H        -0.012042         1.320246        -1.529362
 H        -2.670166         1.682075        -0.041789
 H        -2.228970         2.087687        -1.700668
