19
Iteration:  1823
 C        -2.986644        -0.026803        -2.991941
 C        -2.480255        -0.101624        -1.562449
 C        -3.052503        -1.267604        -0.684346
 C        -1.576377        -1.162985        -1.032330
 O        -0.735129        -1.020608         0.080802
 C         0.046079         0.178013         0.053778
 O         1.163709         0.058379         0.462098
 C        -0.677172         1.441866        -0.364458
 C        -2.146715         1.242638        -0.802280
 H        -3.587018        -0.858404        -3.122051
 H        -3.623786         0.801054        -2.865259
 H        -2.285736         0.211415        -3.812535
 H        -3.387107        -0.994006         0.245444
 H        -3.680616        -1.965481        -1.170320
 H        -1.213977        -1.865492        -1.806765
 H        -0.539052         2.159873         0.502087
 H        -0.156505         1.739804        -1.484644
 H        -2.782030         1.107903         0.070146
 H        -2.342610         2.004941        -1.470854
