19
Iteration:  1633
 C        -3.122949         0.126976        -2.769806
 C        -2.519041        -0.065337        -1.378474
 C        -2.982013        -1.300347        -0.646221
 C        -1.565754        -1.245006        -1.157564
 O        -0.514068        -1.131338        -0.210327
 C        -0.018636         0.155710         0.008588
 O         0.702743         0.257714         0.956734
 C        -0.446727         1.338078        -0.947807
 C        -1.966828         1.200258        -0.692062
 H        -3.699700        -0.721488        -3.084185
 H        -3.730251         1.033524        -2.778749
 H        -2.342849         0.370130        -3.428190
 H        -3.219178        -1.207214         0.417496
 H        -3.790774        -1.824391        -1.236193
 H        -1.297852        -1.944972        -1.983696
 H         0.090376         2.224673        -0.624917
 H        -0.204436         1.025668        -2.077264
 H        -2.196303         1.086179         0.310756
 H        -2.397921         2.003238        -1.285027
