19
Iteration:   548
 C        -3.033080        -0.046746        -2.965396
 C        -2.438999        -0.093448        -1.572039
 C        -3.078870        -0.794184        -0.337915
 C        -1.784201        -1.309343        -0.964947
 O        -0.497756        -1.134145        -0.323914
 C        -0.045252         0.059244         0.129928
 O         1.152689         0.209676         0.283419
 C        -1.068766         1.150810         0.215998
 C        -1.672898         1.241475        -1.240201
 H        -3.375493        -1.092642        -3.300544
 H        -3.997059         0.540198        -3.053014
 H        -2.294458         0.419034        -3.657450
 H        -3.158655        -0.168235         0.560332
 H        -3.993204        -1.380400        -0.598079
 H        -1.796745        -2.254172        -1.374140
 H        -1.842080         1.113370         0.962647
 H        -0.406210         2.150370         0.457548
 H        -2.447173         2.071759        -1.357178
 H        -0.919450         1.483251        -2.033361
