19
Iteration:  4211
 C        -3.213019        -0.114777        -2.871324
 C        -2.470362         0.020740        -1.505234
 C        -2.994726        -0.907087        -0.439263
 C        -1.718769        -1.216673        -1.143091
 O        -0.477678        -1.192432        -0.414145
 C        -0.015675         0.023577         0.092598
 O         1.062369         0.119339         0.700896
 C        -0.768285         1.246812        -0.120754
 C        -1.863361         1.347707        -1.143353
 H        -3.963137        -0.912721        -2.893940
 H        -3.702430         0.811996        -3.110588
 H        -2.541328        -0.210496        -3.696953
 H        -2.941136        -0.485333         0.549756
 H        -3.892011        -1.465836        -0.692873
 H        -1.620195        -2.027003        -1.910888
 H        -1.140716         1.434709         0.953443
 H        -0.044305         2.032932        -0.303780
 H        -2.725273         2.009736        -0.706218
 H        -1.472908         1.759949        -2.058734
