19
Iteration:  3026charge 0 multiplicity 1
 C        -3.487458        -0.141237        -2.573073
 C        -2.429655        -0.050260        -1.497867
 C        -2.695156        -0.821274        -0.272406
 C        -1.546841        -1.251168        -1.165444
 O        -0.116534        -0.973727        -0.805422
 C        -0.081433         0.069194         0.072062
 O         0.446001        -0.155046         1.175856
 C        -0.719318         1.369021        -0.360961
 C        -1.776507         1.304389        -1.460635
 H        -3.721133        -1.214785        -2.769237
 H        -4.392478         0.410511        -2.289656
 H        -3.259628         0.419324        -3.532181
 H        -2.206714        -0.617728         0.693151
 H        -3.603182        -1.391555        -0.283834
 H        -1.578667        -2.048520        -1.811193
 H        -1.335582         1.673231         0.477284
 H        -0.041851         2.211874        -0.310736
 H        -2.321226         2.097304        -1.442116
 H        -1.199838         1.358289        -2.406492
