19
Iteration:  1443
 C        -2.816082        -0.070690        -3.021900
 C        -2.490931        -0.024583        -1.538520
 C        -3.067561        -1.095246        -0.572491
 C        -1.749326        -1.215184        -1.030005
 O        -0.537564        -1.135876        -0.160578
 C         0.020381         0.092295         0.060882
 O         1.152657         0.110247         0.498987
 C        -0.764541         1.401193        -0.328891
 C        -2.278974         1.312121        -0.741963
 H        -2.824769        -1.105902        -3.343832
 H        -3.724667         0.432744        -3.226498
 H        -2.011389         0.254237        -3.686023
 H        -3.301434        -0.783290         0.498208
 H        -3.730250        -2.049069        -0.782464
 H        -1.536399        -2.132993        -1.612130
 H        -0.438844         2.152447         0.444973
 H        -0.341899         1.927257        -1.271705
 H        -2.872882         1.296322         0.117760
 H        -2.518091         2.207468        -1.322996
