19
Iteration:  4206
 C        -3.211215        -0.117321        -2.893459
 C        -2.490929         0.040313        -1.507001
 C        -2.990161        -0.894876        -0.398455
 C        -1.690314        -1.213457        -1.145811
 O        -0.497397        -1.170096        -0.395877
 C         0.005924        -0.036307         0.146000
 O         1.079602         0.128488         0.655209
 C        -0.856859         1.218266        -0.145682
 C        -1.840680         1.350044        -1.132020
 H        -3.940497        -0.950046        -2.964618
 H        -3.630076         0.906354        -3.195319
 H        -2.427616        -0.068016        -3.725951
 H        -2.855826        -0.481021         0.620206
 H        -3.814546        -1.603434        -0.583789
 H        -1.644830        -1.934907        -1.925545
 H        -1.308780         1.385614         0.797159
 H        -0.029912         2.027092        -0.269660
 H        -2.590489         1.973291        -0.790243
 H        -1.403490         1.832377        -2.041170
