19
Iteration:  4517
 C        -2.826486        -0.099483        -2.942119
 C        -2.353198        -0.015720        -1.534056
 C        -3.254037        -0.803341        -0.511729
 C        -1.810275        -1.240748        -0.870203
 O        -0.588609        -1.159397        -0.179828
 C         0.002466         0.078501         0.045815
 O         1.268870         0.094977         0.005430
 C        -1.108872         1.191124         0.326275
 C        -1.804746         1.307565        -1.063195
 H        -3.195970        -1.111843        -3.275318
 H        -3.700055         0.599059        -3.014928
 H        -1.957352         0.144190        -3.610550
 H        -3.649189        -0.055986         0.195065
 H        -4.054295        -1.422128        -0.938977
 H        -1.672968        -2.094780        -1.485715
 H        -1.762756         0.924642         1.082557
 H        -0.663135         2.107174         0.528692
 H        -2.647140         2.024348        -1.122344
 H        -0.935492         1.485859        -1.834993
