19
Iteration:  1960charge 0 multiplicity 1
 C        -3.021096         0.003385        -2.804861
 C        -2.501310        -0.042373        -1.418229
 C        -2.988938        -1.249668        -0.657494
 C        -1.633366        -1.156748        -1.145057
 O        -0.630707        -1.021818        -0.117925
 C         0.007596         0.131373         0.033656
 O         0.969861         0.144403         0.795777
 C        -0.581952         1.249671        -0.719371
 C        -2.075767         1.276110        -0.800627
 H        -3.258082        -0.959091        -3.246460
 H        -3.796821         0.700309        -2.970808
 H        -2.315035         0.441709        -3.426765
 H        -3.173536        -1.032638         0.380901
 H        -3.801056        -1.824672        -1.199011
 H        -1.313864        -1.834384        -1.890857
 H        -0.255901         2.195735        -0.268097
 H        -0.310495         1.055295        -1.789090
 H        -2.435099         1.229303         0.217659
 H        -2.457516         2.117060        -1.339604
