19
Iteration:  4472
 C        -2.983851        -0.015729        -3.008270
 C        -2.493231        -0.000958        -1.650201
 C        -3.046423        -0.904196        -0.451053
 C        -1.776471        -1.230084        -1.052102
 O        -0.671556        -1.210059        -0.096368
 C         0.010898         0.016166         0.095513
 O         1.182153         0.118679         0.258357
 C        -0.870806         1.289074         0.100075
 C        -1.842307         1.288592        -1.032414
 H        -2.913182        -1.068242        -3.465811
 H        -4.076899         0.243110        -3.061471
 H        -2.312788         0.638584        -3.578734
 H        -2.885581        -0.684325         0.579050
 H        -4.032552        -1.377430        -0.412439
 H        -1.744015        -2.175474        -1.552271
 H        -1.297283         1.378309         1.017582
 H        -0.253004         2.117865        -0.137331
 H        -2.647598         2.003609        -0.876244
 H        -1.204975         1.654984        -1.975283
