19
Iteration:  1867
 C        -2.789447         0.065931        -2.879902
 C        -2.510676        -0.076091        -1.465009
 C        -3.109753        -1.288300        -0.700124
 C        -1.710597        -1.133415        -0.996488
 O        -0.761983        -1.039520         0.067869
 C         0.029516         0.078675        -0.068227
 O         1.118896         0.172449         0.507556
 C        -0.638710         1.371389        -0.640404
 C        -2.182453         1.180290        -0.655904
 H        -2.513544        -0.834284        -3.356764
 H        -3.735873         0.352988        -3.220658
 H        -2.134195         0.847174        -3.317946
 H        -3.345619        -1.122287         0.289855
 H        -3.591131        -2.034999        -1.245514
 H        -1.153260        -1.651997        -1.807882
 H        -0.285255         2.169635         0.015094
 H        -0.222561         1.255602        -1.675683
 H        -2.463237         1.125930         0.372070
 H        -2.557007         1.974819        -1.221073
