19
Iteration:  3765charge 0 multiplicity 1
 C        -3.066814        -0.041518        -2.949205
 C        -2.453397        -0.047772        -1.509247
 C        -3.163489        -0.952556        -0.559321
 C        -1.674319        -1.260733        -1.070800
 O        -0.560472        -1.195059        -0.223862
 C        -0.009091         0.040925         0.104062
 O         1.137691         0.080903         0.490560
 C        -0.726230         1.369650        -0.119735
 C        -1.958974         1.297812        -0.988656
 H        -3.595844        -0.990205        -3.125806
 H        -3.744845         0.867105        -2.904634
 H        -2.406552         0.351553        -3.735964
 H        -3.321214        -0.456323         0.436459
 H        -3.966577        -1.692262        -0.879913
 H        -1.588875        -2.173005        -1.630213
 H        -0.806800         1.822797         0.858139
 H         0.204477         1.981094        -0.733137
 H        -2.805248         1.838433        -0.450185
 H        -1.796645         1.984924        -1.834307
