19
Iteration:  1190
 C        -3.401990        -0.047278        -2.758516
 C        -2.420184        -0.069615        -1.583320
 C        -2.839108        -1.053941        -0.427875
 C        -1.587156        -1.241144        -1.158639
 O        -0.373606        -1.061246        -0.438793
 C        -0.008177         0.092897         0.152507
 O         0.929381         0.024883         0.898027
 C        -0.840362         1.359735        -0.233686
 C        -1.908122         1.309660        -1.332870
 H        -4.040805        -0.887261        -2.749032
 H        -3.892220         0.921844        -2.593795
 H        -2.870202        -0.056740        -3.806899
 H        -2.727162        -0.776726         0.578544
 H        -3.721825        -1.622080        -0.606220
 H        -1.408924        -2.005962        -1.916884
 H        -1.187678         1.569214         0.788571
 H        -0.082007         1.993685        -0.371625
 H        -2.804663         2.050052        -1.165501
 H        -1.314868         1.774526        -2.239861
