19
Iteration:  2244charge 0 multiplicity 1
 C        -2.949884        -0.149204        -2.914194
 C        -2.500104        -0.051453        -1.539705
 C        -3.115360        -0.933090        -0.437549
 C        -1.733893        -1.205619        -1.081468
 O        -0.504783        -1.145817        -0.325569
 C        -0.005635         0.043554         0.089965
 O         1.156573         0.133695         0.481082
 C        -0.883979         1.303828        -0.029286
 C        -1.978080         1.359329        -1.079278
 H        -3.105575        -1.206222        -3.295251
 H        -3.857269         0.469456        -2.919640
 H        -2.224266         0.376158        -3.587452
 H        -2.935912        -0.750723         0.583024
 H        -3.831260        -1.749088        -0.479628
 H        -1.711779        -2.186305        -1.635416
 H        -1.324390         1.399512         1.004203
 H        -0.280815         2.125878        -0.181366
 H        -2.934299         2.010643        -0.962262
 H        -1.440422         1.883508        -1.969030
