19
Iteration:  1879
 C        -2.718067         0.174500        -2.965111
 C        -2.580611        -0.054628        -1.389501
 C        -3.151432        -1.273712        -0.661099
 C        -1.646905        -1.271153        -0.961242
 O        -0.688494        -1.040587         0.032468
 C         0.013128         0.124419        -0.013102
 O         1.084229         0.197685         0.519500
 C        -0.647586         1.239569        -0.749231
 C        -2.188629         1.213777        -0.640186
 H        -2.341608        -0.683276        -3.507255
 H        -3.732947         0.279557        -3.192330
 H        -2.128403         1.029610        -3.260269
 H        -3.532433        -1.201059         0.336790
 H        -3.650855        -2.041277        -1.185147
 H        -1.388079        -2.058951        -1.722966
 H        -0.237727         2.137541        -0.258771
 H        -0.257464         1.540268        -1.789109
 H        -2.517582         1.189667         0.405811
 H        -2.735729         2.051498        -0.939702
