19
Iteration:  4929charge 0 multiplicity 1
 C        -2.726198        -0.015909        -2.940534
 C        -2.341215        -0.012577        -1.438943
 C        -3.170693        -0.876920        -0.371029
 C        -1.771278        -1.311034        -0.898450
 O        -0.634301        -1.264355        -0.048364
 C        -0.077977         0.021317        -0.009271
 O         1.091131         0.190000        -0.003138
 C        -1.074717         1.199471         0.126040
 C        -1.801036         1.414252        -1.169643
 H        -3.449109        -0.810679        -3.248369
 H        -2.995292         0.979837        -3.430271
 H        -1.871764        -0.328248        -3.557589
 H        -3.197149        -0.475906         0.650640
 H        -4.061199        -1.304820        -0.781155
 H        -1.591573        -2.013499        -1.685699
 H        -1.710839         0.850598         0.850728
 H        -0.408409         1.956925         0.551070
 H        -2.614530         2.177572        -0.890192
 H        -1.080187         1.718120        -2.067877
