19
Iteration:  1625
 C        -3.082301         0.136836        -2.784082
 C        -2.516481        -0.075173        -1.404984
 C        -2.985543        -1.228004        -0.603357
 C        -1.581753        -1.260792        -1.124071
 O        -0.480578        -1.114553        -0.231163
 C         0.007066         0.146022        -0.072869
 O         0.675796         0.266214         0.915264
 C        -0.475382         1.261992        -0.830412
 C        -1.978333         1.172756        -0.746391
 H        -3.519158        -0.769011        -3.155256
 H        -3.862258         0.950302        -2.748538
 H        -2.258008         0.282611        -3.559556
 H        -3.232717        -1.162166         0.513626
 H        -3.764308        -1.949545        -1.074109
 H        -1.391984        -1.796604        -2.056504
 H         0.030188         2.145365        -0.346468
 H        -0.196929         1.108720        -1.816271
 H        -2.278373         1.421889         0.344761
 H        -2.529079         2.088011        -1.087362
