19
Iteration:   555
 C        -3.048901        -0.050891        -2.914554
 C        -2.427262        -0.088342        -1.571658
 C        -3.086804        -0.787803        -0.428899
 C        -1.754265        -1.275433        -0.921845
 O        -0.518491        -1.157628        -0.318066
 C        -0.044769         0.091099         0.128605
 O         1.164916         0.173055         0.278037
 C        -1.057787         1.225239         0.183094
 C        -1.724870         1.225983        -1.219655
 H        -3.303216        -0.972162        -3.322131
 H        -3.914251         0.600825        -2.836068
 H        -2.284619         0.202640        -3.597482
 H        -3.195779        -0.301720         0.556172
 H        -3.919854        -1.519329        -0.688676
 H        -1.675566        -2.207544        -1.553569
 H        -1.839268         1.048652         1.034452
 H        -0.422022         2.155341         0.446422
 H        -2.409727         1.994835        -1.389827
 H        -0.861949         1.261561        -1.926699
