19
Iteration:  2168charge 0 multiplicity 1
 C        -3.429908        -0.066758        -2.706587
 C        -2.457734        -0.081710        -1.588217
 C        -2.807844        -0.982331        -0.347561
 C        -1.585973        -1.248800        -1.156903
 O        -0.328627        -1.041653        -0.607523
 C        -0.039631         0.122757         0.073418
 O         0.878633         0.063508         0.883297
 C        -1.017276         1.318091         0.028050
 C        -1.618899         1.227579        -1.435371
 H        -3.986074        -1.065051        -2.650591
 H        -4.196524         0.764117        -2.541683
 H        -2.971411         0.181879        -3.695054
 H        -2.828680        -0.554950         0.628153
 H        -3.761430        -1.441636        -0.574356
 H        -1.521380        -2.074684        -1.953208
 H        -1.755027         1.436287         0.812003
 H        -0.376061         2.097448         0.120339
 H        -2.356480         2.080713        -1.662231
 H        -0.775708         1.344971        -2.147120
