19
Iteration:  4501charge 0 multiplicity 1
 C        -2.867310        -0.008975        -2.920554
 C        -2.396602        -0.004666        -1.536896
 C        -3.190973        -0.804288        -0.541730
 C        -1.762576        -1.242195        -0.844929
 O        -0.546133        -1.208132        -0.076302
 C        -0.009305         0.036705        -0.015626
 O         1.210085         0.087504         0.095883
 C        -1.047194         1.177276         0.136638
 C        -1.845449         1.348215        -1.107588
 H        -2.926024        -1.031121        -3.269799
 H        -3.876073         0.412476        -3.013951
 H        -2.259128         0.563910        -3.574135
 H        -3.481171        -0.602335         0.495092
 H        -3.951662        -1.449666        -0.993740
 H        -1.814213        -2.222318        -1.390962
 H        -1.721983         0.761859         0.992085
 H        -0.537184         2.174073         0.467597
 H        -2.610932         2.124065        -1.024364
 H        -1.227005         1.758785        -1.889400
