19
Iteration:  3261
 C        -2.702605        -0.043888        -3.118347
 C        -2.437979        -0.080088        -1.536973
 C        -3.237578        -1.004782        -0.559284
 C        -1.723891        -1.220786        -0.890439
 O        -0.715255        -1.132404         0.094532
 C         0.037987         0.095654         0.092829
 O         1.192114         0.119554        -0.153071
 C        -0.942756         1.249160         0.274854
 C        -1.941616         1.303139        -0.938563
 H        -2.828752        -1.089280        -3.551372
 H        -3.613650         0.595955        -3.279877
 H        -2.026947         0.645788        -3.746641
 H        -3.386725        -0.512177         0.371125
 H        -3.975245        -1.750465        -0.781224
 H        -1.511346        -1.990555        -1.559320
 H        -1.551546         1.303488         1.181948
 H        -0.378030         2.218269         0.274309
 H        -2.759509         2.073024        -0.742085
 H        -1.441109         1.711768        -1.972563
