19
Iteration:  4933
 C        -2.721042        -0.033035        -2.970922
 C        -2.338458         0.022214        -1.458760
 C        -3.145712        -0.871584        -0.385859
 C        -1.757201        -1.358433        -0.878544
 O        -0.644968        -1.256645        -0.061112
 C        -0.116620         0.046721        -0.023087
 O         1.079328         0.181879        -0.009135
 C        -1.018989         1.219080         0.159003
 C        -1.842406         1.397163        -1.154851
 H        -3.428510        -0.770102        -3.214083
 H        -2.974584         0.912014        -3.341223
 H        -1.859995        -0.385744        -3.546911
 H        -3.182209        -0.494252         0.639797
 H        -4.112454        -1.237612        -0.821108
 H        -1.651635        -2.108768        -1.667463
 H        -1.625415         0.871285         1.110190
 H        -0.325743         1.976267         0.510920
 H        -2.610925         2.261768        -0.988158
 H        -1.122238         1.689538        -1.859745
