19
Iteration:  2693charge 0 multiplicity 1
 C        -3.191618        -0.168434        -2.905973
 C        -2.418011        -0.045775        -1.584354
 C        -3.088150        -0.826777        -0.423550
 C        -1.733208        -1.330229        -1.112354
 O        -0.474946        -1.139949        -0.391643
 C         0.015018         0.096809         0.123964
 O         1.115797         0.175968         0.603694
 C        -0.910424         1.292873         0.028250
 C        -1.774760         1.317070        -1.205471
 H        -3.281167        -1.205372        -3.144484
 H        -4.194953         0.166906        -2.727344
 H        -2.567902         0.213961        -3.702279
 H        -2.967105        -0.469291         0.651416
 H        -3.956830        -1.462599        -0.725469
 H        -1.670545        -2.261916        -1.680229
 H        -1.492098         1.207284         0.857360
 H        -0.358202         2.152947         0.258563
 H        -2.728732         1.978773        -1.040898
 H        -1.038685         1.666970        -2.038607
