19
Iteration:  3342charge 0 multiplicity 1
 C        -2.865918         0.047566        -3.023558
 C        -2.448371        -0.057526        -1.578067
 C        -3.183014        -1.115492        -0.576071
 C        -1.793262        -1.252289        -0.980310
 O        -0.612722        -1.073329        -0.075429
 C         0.070064         0.089801         0.058166
 O         1.249631        -0.002610         0.379120
 C        -0.715578         1.377112        -0.178890
 C        -2.185211         1.306682        -0.844601
 H        -3.209834        -0.881074        -3.523167
 H        -3.733290         0.772664        -3.205909
 H        -2.012258         0.338599        -3.618906
 H        -3.320370        -0.603653         0.452404
 H        -3.970696        -1.801408        -0.955799
 H        -1.561526        -2.224167        -1.582272
 H        -0.838936         1.850957         0.818390
 H        -0.042293         2.055380        -0.734429
 H        -2.997528         1.459661        -0.190545
 H        -2.266940         2.079115        -1.683910
