19
Iteration:  4509
 C        -2.865345        -0.075469        -2.900458
 C        -2.352150        -0.026911        -1.487117
 C        -3.183656        -0.832365        -0.560991
 C        -1.862103        -1.205542        -0.854242
 O        -0.535546        -1.158656        -0.119121
 C         0.045106         0.029596        -0.010657
 O         1.220446         0.075130         0.046167
 C        -1.133674         1.209311         0.200837
 C        -1.826082         1.296214        -1.075925
 H        -3.009728        -1.062006        -3.281597
 H        -3.723588         0.581119        -3.073384
 H        -2.092446         0.448682        -3.622748
 H        -3.457743        -0.102712         0.257987
 H        -3.836981        -1.428737        -1.185124
 H        -1.889325        -2.156728        -1.432579
 H        -1.801132         0.902994         1.115773
 H        -0.643184         2.124380         0.558752
 H        -2.529351         2.204678        -1.030468
 H        -1.057357         1.666994        -1.732974
