19
Iteration:  4628
 C        -3.181370        -0.051580        -2.896503
 C        -2.482277         0.053248        -1.562441
 C        -3.046992        -0.940772        -0.471905
 C        -1.738839        -1.267061        -1.049618
 O        -0.536157        -1.136526        -0.276695
 C         0.016557         0.018421         0.176358
 O         1.189979         0.063816         0.559974
 C        -0.835003         1.237514        -0.045075
 C        -1.848341         1.376026        -1.239211
 H        -3.374703        -1.081783        -3.187583
 H        -4.153393         0.485062        -2.900649
 H        -2.649764         0.389383        -3.814463
 H        -3.020038        -0.599123         0.556228
 H        -3.911332        -1.473221        -0.854330
 H        -1.855259        -2.204148        -1.653240
 H        -1.370801         1.399327         0.850472
 H        -0.205215         2.047007         0.028656
 H        -2.582372         2.200341        -1.162266
 H        -1.159133         1.475188        -2.179252
