19
Iteration:  2668charge 0 multiplicity 1
 C        -3.347644        -0.135542        -2.884478
 C        -2.493662        -0.025350        -1.615769
 C        -2.899658        -0.900232        -0.286753
 C        -1.616273        -1.171089        -1.138450
 O        -0.324360        -1.045694        -0.506500
 C         0.012144         0.124974         0.184040
 O         1.035390        -0.007171         0.844263
 C        -1.011280         1.227146        -0.073764
 C        -1.814146         1.282075        -1.387449
 H        -3.920592        -1.089443        -2.882763
 H        -4.104805         0.566230        -2.591146
 H        -2.858451        -0.012425        -3.897393
 H        -2.971339        -0.193912         0.563603
 H        -3.722883        -1.575653        -0.438213
 H        -1.588435        -2.122539        -1.787908
 H        -1.505882         1.315072         0.882431
 H        -0.407394         2.180013        -0.065909
 H        -2.460200         2.230250        -1.390109
 H        -1.003620         1.309188        -2.212717
