19
Iteration:  2581
 C        -3.551862        -0.215890        -2.643607
 C        -2.498059        -0.062277        -1.586315
 C        -2.650683        -0.884019        -0.277132
 C        -1.559687        -1.141072        -1.271791
 O        -0.183147        -0.967148        -0.797907
 C        -0.083205         0.098737         0.179245
 O         0.492144        -0.101521         1.215619
 C        -0.620965         1.351879        -0.243265
 C        -1.763149         1.300739        -1.463583
 H        -3.956435        -1.239598        -2.622728
 H        -4.429772         0.235461        -2.223456
 H        -3.343427         0.086784        -3.696406
 H        -2.275812        -0.503866         0.662827
 H        -3.414187        -1.704531        -0.165686
 H        -1.699523        -2.006463        -1.939059
 H        -0.868780         1.929815         0.527884
 H         0.268574         1.800364        -0.754607
 H        -2.562884         2.126338        -1.196144
 H        -1.157504         1.583833        -2.444639
