19
Iteration:  4529
 C        -2.791532        -0.116629        -3.036875
 C        -2.435533        -0.076799        -1.544362
 C        -3.287462        -0.726393        -0.480488
 C        -1.805334        -1.246249        -0.926801
 O        -0.596544        -1.145427        -0.192515
 C         0.005717         0.091736         0.136927
 O         1.169339         0.170488        -0.011271
 C        -0.973597         1.150440         0.353855
 C        -1.764684         1.260795        -1.063476
 H        -3.292144        -1.094207        -3.141466
 H        -3.508646         0.679884        -3.355691
 H        -1.972213        -0.011828        -3.839376
 H        -3.293992        -0.501611         0.619219
 H        -4.067129        -1.441708        -0.744968
 H        -1.900703        -2.201112        -1.415819
 H        -1.621820         0.804866         1.122776
 H        -0.538819         2.030018         0.681178
 H        -2.500210         2.119478        -0.955488
 H        -1.060896         1.761593        -1.837310
