19
Iteration:  4592charge 0 multiplicity 1
 C        -2.962416        -0.068231        -3.007821
 C        -2.438269        -0.025068        -1.543247
 C        -3.153893        -0.871182        -0.454965
 C        -1.819313        -1.289781        -0.957322
 O        -0.588534        -1.135321        -0.245755
 C         0.030672         0.123623         0.055489
 O         1.245768         0.081222         0.312439
 C        -0.942621         1.213929         0.150247
 C        -1.847787         1.323356        -1.127944
 H        -3.797208        -0.805609        -3.043013
 H        -3.427360         0.927424        -3.211130
 H        -2.191428        -0.259214        -3.724796
 H        -3.378416        -0.405310         0.518732
 H        -4.023970        -1.507944        -0.672308
 H        -1.698629        -2.242127        -1.408195
 H        -1.467923         0.902892         1.073776
 H        -0.373737         2.140648         0.267853
 H        -2.568145         2.140021        -1.061649
 H        -1.202477         1.680005        -2.034594
