19
Iteration:  3393charge 0 multiplicity 1
 C        -2.986767         0.088893        -2.913667
 C        -2.533098        -0.010605        -1.389577
 C        -3.054421        -1.141863        -0.558728
 C        -1.683601        -1.194066        -1.145103
 O        -0.553028        -1.201432        -0.267874
 C         0.024097         0.127269         0.124288
 O         0.992374         0.040768         0.781455
 C        -0.559199         1.313252        -0.627282
 C        -2.102868         1.360377        -0.774908
 H        -3.034403        -0.924134        -3.395956
 H        -4.012400         0.457241        -3.024386
 H        -2.427841         0.715380        -3.597009
 H        -3.201355        -1.062368         0.486218
 H        -3.721210        -1.889636        -0.911721
 H        -1.432641        -1.767140        -2.002040
 H        -0.138244         2.226772        -0.345896
 H        -0.317484         0.986492        -1.718770
 H        -2.733613         1.559482         0.164218
 H        -2.484762         2.332377        -1.284288
