19
Iteration:  3266
 C        -2.679804        -0.002751        -3.085075
 C        -2.426255        -0.061766        -1.542372
 C        -3.275610        -1.030659        -0.541500
 C        -1.681341        -1.199730        -0.906654
 O        -0.724387        -1.116982         0.094034
 C         0.015351         0.118657         0.092570
 O         1.194236         0.069108        -0.143279
 C        -0.910501         1.282573         0.251319
 C        -1.997935         1.284072        -0.965920
 H        -2.885987        -0.987737        -3.481607
 H        -3.700315         0.487661        -3.220716
 H        -1.965298         0.374128        -3.792679
 H        -3.332178        -0.474859         0.440194
 H        -3.953667        -1.864211        -0.928557
 H        -1.326184        -2.002825        -1.691359
 H        -1.413296         1.299822         1.238360
 H        -0.410671         2.280803         0.266256
 H        -2.782653         1.968568        -0.727369
 H        -1.500110         1.584278        -1.797064
