19
Iteration:  1726
 C        -2.990982        -0.028815        -2.952525
 C        -2.587422        -0.012294        -1.506165
 C        -3.027800        -1.173078        -0.509515
 C        -1.669677        -1.195003        -1.087035
 O        -0.510347        -1.090598        -0.260750
 C         0.017054         0.115597         0.069260
 O         0.955124         0.146630         0.803679
 C        -0.564479         1.354738        -0.623907
 C        -2.113740         1.245987        -0.809382
 H        -2.690064        -1.022940        -3.322595
 H        -4.055646         0.132513        -3.085229
 H        -2.467795         0.815458        -3.473252
 H        -3.233144        -0.887246         0.467640
 H        -3.728707        -1.891419        -0.852092
 H        -1.487099        -1.946076        -1.853343
 H        -0.476746         2.223777         0.000654
 H        -0.079565         1.446584        -1.508053
 H        -2.318949         0.974936         0.261924
 H        -2.561636         2.162895        -1.130905
