19
Iteration:  2375
 C        -2.778563        -0.163079        -3.031615
 C        -2.391961        -0.039181        -1.560461
 C        -3.234686        -0.826775        -0.461239
 C        -1.793689        -1.212529        -0.903175
 O        -0.543903        -1.273267        -0.130780
 C        -0.001044         0.141048         0.032813
 O         1.202168         0.281041         0.021726
 C        -1.082174         1.103852         0.233130
 C        -1.846403         1.334221        -1.019940
 H        -2.865737        -1.211477        -3.346531
 H        -3.749043         0.241011        -3.246105
 H        -2.067951         0.455933        -3.604696
 H        -3.348963        -0.231455         0.447926
 H        -3.943199        -1.603614        -0.628885
 H        -1.980629        -2.153852        -1.334963
 H        -1.858170         0.857763         1.097138
 H        -0.751288         2.149081         0.457990
 H        -2.570240         2.078618        -0.829972
 H        -1.071299         1.829943        -1.603912
