19
Iteration:  4187charge 0 multiplicity 1
 C        -3.117132        -0.033457        -2.960943
 C        -2.545892         0.015385        -1.540134
 C        -2.934280        -0.895433        -0.326443
 C        -1.722995        -1.188029        -1.079834
 O        -0.458387        -1.205287        -0.328669
 C         0.023502         0.061515         0.105020
 O         1.135327         0.027280         0.523143
 C        -0.968327         1.231297         0.080610
 C        -1.910439         1.342696        -1.302021
 H        -3.691514        -0.988387        -3.095173
 H        -3.741022         0.870889        -3.212232
 H        -2.377008         0.175902        -3.720248
 H        -2.741699        -0.375336         0.609396
 H        -3.837689        -1.515874        -0.470776
 H        -1.712416        -2.092480        -1.655972
 H        -1.542961         1.114975         1.035243
 H        -0.283904         2.224157         0.185166
 H        -2.706570         2.148589        -1.179033
 H        -1.307604         1.457966        -2.173559
