19
Iteration:  3072
 C        -3.498464        -0.174044        -2.670794
 C        -2.499421        -0.095813        -1.477327
 C        -2.788666        -0.849645        -0.293736
 C        -1.585263        -1.232735        -1.263483
 O        -0.204489        -0.962137        -0.742083
 C        -0.007580         0.023330         0.117082
 O         0.566501        -0.083131         1.162098
 C        -0.629662         1.397193        -0.294983
 C        -1.763199         1.287561        -1.412521
 H        -3.342034        -1.202801        -3.009650
 H        -4.548526         0.064101        -2.509786
 H        -3.355217         0.613536        -3.541937
 H        -2.531312        -0.448462         0.721280
 H        -3.777103        -1.372767        -0.407253
 H        -1.448773        -2.232273        -1.712270
 H        -0.979052         1.954176         0.652118
 H         0.133892         2.050383        -0.646016
 H        -2.463067         1.928788        -1.138813
 H        -1.438076         1.681266        -2.423574
