19
Iteration:  1007charge 0 multiplicity 1
 C        -2.795687        -0.090502        -3.012416
 C        -2.509124        -0.039876        -1.550451
 C        -3.158885        -1.078097        -0.610237
 C        -1.699153        -1.215905        -0.963122
 O        -0.605278        -1.144521         0.073114
 C         0.059815         0.108379        -0.001393
 O         1.246367         0.064398         0.242336
 C        -0.801781         1.347359        -0.135283
 C        -2.221453         1.386144        -0.888592
 H        -3.127245        -1.038938        -3.462347
 H        -3.599652         0.592144        -3.246312
 H        -2.036094         0.334516        -3.618358
 H        -3.339754        -0.802264         0.402957
 H        -3.828937        -1.789663        -0.972445
 H        -1.536658        -2.103791        -1.640973
 H        -1.093230         1.430094         0.930115
 H        -0.166337         2.375818        -0.348767
 H        -2.990163         1.718192        -0.257389
 H        -2.242645         2.138426        -1.742559
