19
Iteration:  3951charge 0 multiplicity 1
 C        -3.082194         0.086258        -2.842995
 C        -2.516445        -0.043742        -1.469649
 C        -3.023215        -1.086357        -0.496843
 C        -1.685047        -1.261459        -1.155618
 O        -0.621993        -1.066721        -0.324465
 C         0.031781         0.137842         0.070021
 O         0.956871         0.026657         0.845698
 C        -0.478685         1.329442        -0.661590
 C        -2.050311         1.219197        -0.799220
 H        -2.846652        -0.881035        -3.367955
 H        -4.133918         0.305173        -2.998556
 H        -2.503541         0.956409        -3.395232
 H        -2.951677        -0.790223         0.588269
 H        -3.925594        -1.680985        -0.776073
 H        -1.415692        -1.990461        -1.920608
 H         0.027357         2.198977        -0.202540
 H        -0.165271         1.157631        -1.657533
 H        -2.571721         1.256466         0.203049
 H        -2.452194         2.119507        -1.378851
