19
Iteration:   655
 C        -3.044519        -0.106633        -2.961854
 C        -2.531947        -0.075264        -1.489180
 C        -3.106849        -0.956143        -0.453962
 C        -1.781608        -1.224583        -1.035585
 O        -0.499794        -1.147077        -0.387135
 C         0.057239         0.066716         0.005347
 O         1.031182         0.116279         0.683332
 C        -0.606647         1.301273        -0.226325
 C        -2.027457         1.292260        -0.954907
 H        -3.026576        -1.119514        -3.358026
 H        -3.950568         0.518197        -3.190725
 H        -2.244458         0.519117        -3.594332
 H        -3.210965        -0.434957         0.593157
 H        -4.049827        -1.612581        -0.517414
 H        -1.655508        -1.967513        -1.694301
 H        -0.585982         1.888021         0.750807
 H         0.151473         1.938733        -0.932354
 H        -2.794223         1.735099        -0.406120
 H        -1.859429         2.035399        -1.837691
