19
Iteration:  1685
 C        -3.203017         0.228366        -2.792311
 C        -2.513359        -0.074866        -1.446363
 C        -2.948360        -1.342207        -0.685305
 C        -1.546233        -1.265521        -1.168629
 O        -0.598473        -1.140458        -0.068202
 C         0.032466         0.118531         0.072172
 O         0.838362         0.297903         0.926494
 C        -0.506295         1.229972        -0.889918
 C        -2.012170         1.263817        -0.825144
 H        -3.595689        -0.744612        -3.284652
 H        -4.127203         0.804338        -2.599287
 H        -2.571360         0.820733        -3.471204
 H        -3.056396        -1.314469         0.355708
 H        -3.508163        -2.045684        -1.270227
 H        -1.210964        -1.943100        -1.987991
 H         0.039697         2.061154        -0.520695
 H         0.040666         1.155512        -1.878579
 H        -2.218776         1.258733         0.264166
 H        -2.499700         2.122075        -1.340122
