19
Iteration:  4555charge 0 multiplicity 1
 C        -2.748781        -0.095950        -3.015134
 C        -2.461948        -0.021665        -1.532642
 C        -3.155088        -0.759504        -0.358861
 C        -1.789381        -1.247977        -0.943698
 O        -0.612359        -1.297643        -0.212374
 C        -0.058590         0.023298         0.029577
 O         1.171348         0.251044         0.081051
 C        -1.037208         1.123815         0.262548
 C        -1.831077         1.338073        -1.082958
 H        -3.533699        -0.837868        -3.109252
 H        -3.088944         0.817885        -3.493030
 H        -1.926370        -0.438535        -3.692209
 H        -3.117139        -0.122833         0.529804
 H        -4.074416        -1.359147        -0.534822
 H        -1.946368        -2.069644        -1.693540
 H        -1.563564         1.029463         1.315361
 H        -0.388816         2.095956         0.396949
 H        -2.495951         2.250937        -1.074717
 H        -1.048857         1.640306        -1.709050
