19
Iteration:  2086charge 0 multiplicity 1
 C        -3.301972        -0.268024        -2.793191
 C        -2.434867        -0.046858        -1.571363
 C        -2.836598        -0.913463        -0.274713
 C        -1.631049        -1.204861        -1.159465
 O        -0.299970        -1.011974        -0.699562
 C        -0.046404         0.063634         0.142838
 O         0.740650        -0.094347         1.027186
 C        -0.659397         1.407041        -0.370042
 C        -1.973929         1.412047        -1.130370
 H        -3.384300        -1.279490        -3.158621
 H        -4.322212         0.100611        -2.705884
 H        -2.833684         0.180170        -3.714013
 H        -2.632144        -0.533210         0.712744
 H        -3.775787        -1.471358        -0.565726
 H        -1.537388        -2.087957        -1.782169
 H        -0.887194         2.031106         0.503342
 H         0.161637         1.926390        -0.801554
 H        -2.750872         1.995626        -0.599487
 H        -1.701917         2.027023        -2.099732
