19
Iteration:  3526
 C        -3.153034        -0.018298        -2.785091
 C        -2.476072         0.030305        -1.437090
 C        -3.054778        -1.012595        -0.504283
 C        -1.652057        -1.197883        -1.125535
 O        -0.395491        -1.166392        -0.442191
 C         0.041713         0.065322        -0.004934
 O         0.717945        -0.014056         0.958716
 C        -0.486900         1.329196        -0.686343
 C        -1.990900         1.336881        -0.854870
 H        -3.236610        -1.046623        -3.177215
 H        -4.218895         0.400045        -2.680641
 H        -2.489641         0.476548        -3.448552
 H        -3.091080        -0.726203         0.544215
 H        -3.802407        -1.663429        -1.047722
 H        -1.522350        -1.986491        -1.945285
 H        -0.212861         2.076507         0.073725
 H         0.219718         1.636465        -1.562565
 H        -2.334878         1.601479         0.291028
 H        -2.435055         2.303310        -1.374807
