19
Iteration:  1657
 C        -3.186327         0.206574        -2.750602
 C        -2.530481        -0.068327        -1.415841
 C        -2.923582        -1.387823        -0.708748
 C        -1.555605        -1.228487        -1.247626
 O        -0.638275        -1.021589        -0.124851
 C         0.089158         0.152714         0.004369
 O         0.765803         0.311851         1.033560
 C        -0.478845         1.143831        -0.946598
 C        -1.981222         1.210636        -0.736024
 H        -3.788982        -0.625943        -2.911369
 H        -3.805442         1.127405        -2.662889
 H        -2.467190         0.474332        -3.544960
 H        -2.940784        -1.444582         0.457475
 H        -3.756712        -2.039489        -1.194962
 H        -1.213726        -1.670964        -2.190090
 H         0.214640         2.040981        -0.786948
 H        -0.216644         0.623394        -1.920508
 H        -2.096799         1.067367         0.338012
 H        -2.402555         2.050791        -1.335595
