19
Iteration:   353charge 0 multiplicity 1
 C        -3.284238        -0.233917        -2.750846
 C        -2.413436         0.029503        -1.575800
 C        -2.791174        -0.814684        -0.352623
 C        -1.707383        -1.224233        -1.135581
 O        -0.387116        -1.090253        -0.627069
 C        -0.034868         0.052139         0.062456
 O         0.798078        -0.034805         0.927419
 C        -0.701503         1.312157        -0.231918
 C        -1.899455         1.365170        -1.244232
 H        -3.158674        -1.350029        -3.004107
 H        -4.277329         0.087309        -2.522199
 H        -3.037634         0.245218        -3.719291
 H        -2.487835        -0.292191         0.629250
 H        -3.892570        -1.263528        -0.294761
 H        -1.640068        -2.014919        -1.791139
 H        -1.137586         1.544122         0.973932
 H         0.088738         2.041624        -0.390612
 H        -2.630043         1.906202        -0.640372
 H        -1.640648         1.846155        -2.158071
