19
Iteration:  3252
 C        -2.734746        -0.055066        -3.096605
 C        -2.444841        -0.052427        -1.547987
 C        -3.155394        -0.940706        -0.572501
 C        -1.808479        -1.278827        -0.872257
 O        -0.677141        -1.142357         0.090953
 C        -0.024140         0.055478         0.076409
 O         1.203563         0.187096        -0.151728
 C        -0.986950         1.226413         0.270851
 C        -1.882760         1.319817        -0.975609
 H        -2.715439        -1.062018        -3.641972
 H        -3.766195         0.450415        -3.296753
 H        -1.869610         0.519411        -3.445415
 H        -3.427561        -0.529418         0.380435
 H        -3.977802        -1.631416        -0.884451
 H        -1.676048        -2.208683        -1.428731
 H        -1.551455         1.023945         1.168154
 H        -0.306947         2.156160         0.319631
 H        -2.681258         1.934041        -0.724492
 H        -1.228282         1.921964        -1.718815
