19
Iteration:   507
 C        -2.996104        -0.158642        -2.895263
 C        -2.480014        -0.000183        -1.522029
 C        -3.144280        -0.764914        -0.394342
 C        -1.745734        -1.204981        -0.980888
 O        -0.425182        -1.148438        -0.395727
 C        -0.003671         0.044938         0.077118
 O         1.148522         0.094703         0.408639
 C        -1.018590         1.219459         0.093147
 C        -1.830194         1.298382        -1.197909
 H        -3.017336        -1.223861        -3.292997
 H        -4.016460         0.201719        -2.888627
 H        -2.241187         0.284394        -3.615051
 H        -3.256000        -0.145576         0.487099
 H        -3.954310        -1.409443        -0.610772
 H        -1.844110        -2.233811        -1.363237
 H        -1.567940         1.074931         0.957321
 H        -0.515559         2.046455         0.181030
 H        -2.610511         2.122664        -1.081450
 H        -1.142821         1.520882        -1.994369
