19
Iteration:  4082
 C        -2.979206        -0.004594        -2.986471
 C        -2.452207        -0.016666        -1.539933
 C        -3.164663        -0.964897        -0.516567
 C        -1.741102        -1.327459        -0.962758
 O        -0.556815        -1.215707        -0.150455
 C        -0.003165         0.037370         0.002618
 O         1.188035         0.120811         0.290730
 C        -0.824342         1.338102         0.104755
 C        -1.959471         1.352824        -1.016386
 H        -3.495720        -0.951762        -3.229162
 H        -3.789679         0.733200        -3.053991
 H        -2.231829         0.130065        -3.817617
 H        -3.372668        -0.604509         0.474633
 H        -4.091970        -1.401658        -0.869339
 H        -1.441957        -2.015539        -1.771232
 H        -1.176287         1.523739         1.131333
 H        -0.157554         2.037518        -0.065375
 H        -2.673434         2.033866        -0.995730
 H        -1.398120         1.637747        -1.919264
