19
Iteration:  3372
 C        -2.942701         0.026694        -2.910715
 C        -2.473958        -0.024294        -1.465849
 C        -3.131198        -1.053108        -0.589887
 C        -1.754111        -1.225290        -1.102071
 O        -0.561593        -1.132216        -0.227459
 C         0.024484         0.053106         0.025482
 O         1.059066         0.104086         0.631912
 C        -0.556741         1.306864        -0.445849
 C        -2.144284         1.252052        -0.761046
 H        -2.891039        -0.993702        -3.361578
 H        -3.909123         0.504758        -3.139499
 H        -2.226604         0.619475        -3.439545
 H        -3.333827        -0.714950         0.406456
 H        -3.948354        -1.648664        -0.952381
 H        -1.537236        -2.076214        -1.712339
 H        -0.513792         1.842172         0.450239
 H         0.082800         1.779316        -1.258417
 H        -2.731294         1.510695         0.102961
 H        -2.433279         2.177232        -1.410866
