19
Iteration:  1753charge 0 multiplicity 1
 C        -2.828414        -0.098075        -3.018814
 C        -2.559108        -0.029187        -1.428975
 C        -3.073580        -1.034631        -0.490631
 C        -1.666020        -1.274119        -1.091156
 O        -0.535116        -1.094795        -0.311685
 C         0.035270         0.096895         0.002634
 O         1.072688         0.123303         0.689750
 C        -0.702316         1.345956        -0.412629
 C        -2.241684         1.306010        -0.747279
 H        -2.762789        -1.183061        -3.269146
 H        -3.892481         0.248967        -3.163270
 H        -2.139813         0.582252        -3.503537
 H        -3.322385        -0.723452         0.620383
 H        -3.726704        -1.899228        -0.841953
 H        -1.619064        -2.108067        -1.801136
 H        -0.584076         2.334849         0.095693
 H        -0.196266         1.646733        -1.433696
 H        -2.722075         1.353288         0.174135
 H        -2.429293         2.124966        -1.525301
