19
Iteration:  2234
 C        -3.035116        -0.146763        -2.940046
 C        -2.433579        -0.006685        -1.496401
 C        -3.043724        -0.943322        -0.374632
 C        -1.760716        -1.234408        -1.004783
 O        -0.436926        -1.127644        -0.403426
 C         0.019639         0.060595         0.044212
 O         1.112939         0.093752         0.555551
 C        -0.927818         1.286856        -0.002951
 C        -1.946003         1.367269        -1.168164
 H        -3.121084        -1.222211        -3.259945
 H        -4.062256         0.269806        -3.182889
 H        -2.377660         0.378794        -3.653879
 H        -3.159929        -0.495425         0.586894
 H        -3.850238        -1.536888        -0.811894
 H        -1.694840        -2.093272        -1.718289
 H        -1.547751         1.395273         0.878928
 H        -0.279452         2.027273         0.088626
 H        -2.769926         2.040829        -0.709846
 H        -1.639426         1.761186        -2.187641
