19
Iteration:   862charge 0 multiplicity 1
 C        -3.030422         0.036029        -2.922973
 C        -2.598832        -0.017826        -1.475896
 C        -3.062686        -1.174802        -0.612130
 C        -1.602812        -1.223394        -1.069199
 O        -0.615209        -1.150064        -0.078210
 C         0.048906         0.099758         0.032760
 O         1.096302         0.120170         0.636559
 C        -0.613548         1.361572        -0.500748
 C        -2.134810         1.274130        -0.872151
 H        -3.183931        -0.862861        -3.381398
 H        -3.882241         0.682288        -3.022554
 H        -2.273530         0.472901        -3.611469
 H        -3.227753        -1.052004         0.460092
 H        -3.731481        -2.007198        -0.994197
 H        -1.355578        -1.806214        -1.981110
 H        -0.589802         2.000620         0.395073
 H         0.156981         1.720285        -1.268032
 H        -2.571565         1.448345         0.131085
 H        -2.335834         2.200281        -1.454776
