19
Iteration:  4901
 C        -2.936782        -0.044261        -3.032549
 C        -2.479684        -0.043393        -1.540731
 C        -3.164170        -0.792540        -0.474593
 C        -1.771867        -1.235811        -0.886827
 O        -0.586592        -1.167190        -0.101913
 C        -0.002231         0.071436         0.103687
 O         1.234724         0.154071         0.100828
 C        -1.038974         1.146141         0.221421
 C        -1.772808         1.276554        -1.151600
 H        -3.413858        -0.985546        -3.267676
 H        -3.584852         0.717243        -3.414175
 H        -2.042298         0.009130        -3.700359
 H        -3.397929        -0.311619         0.483304
 H        -3.994812        -1.420029        -0.861437
 H        -1.637967        -2.116387        -1.512694
 H        -1.637123         0.801415         1.184774
 H        -0.486304         2.057756         0.454662
 H        -2.362553         2.189049        -1.188968
 H        -1.035235         1.319140        -1.879050
