19
Iteration:  2696charge 0 multiplicity 1
 C        -3.147722        -0.171248        -2.910030
 C        -2.403555        -0.046307        -1.572192
 C        -3.106819        -0.831982        -0.416740
 C        -1.752904        -1.339869        -1.125266
 O        -0.482720        -1.161189        -0.379956
 C         0.010595         0.103301         0.124754
 O         1.129989         0.195397         0.578654
 C        -0.920060         1.284003         0.031036
 C        -1.782559         1.325249        -1.195339
 H        -3.247864        -1.240730        -3.114292
 H        -4.189720         0.169087        -2.731336
 H        -2.613555         0.304078        -3.715129
 H        -3.030994        -0.483538         0.564907
 H        -4.008450        -1.400159        -0.707519
 H        -1.676407        -2.220366        -1.692363
 H        -1.481235         1.203028         0.991414
 H        -0.312717         2.180303         0.201835
 H        -2.613702         1.991620        -1.067744
 H        -1.161134         1.660722        -1.996996
