19
Iteration:  4147
 C        -3.076568        -0.095018        -2.941603
 C        -2.472613        -0.023529        -1.519400
 C        -3.152044        -0.773925        -0.460266
 C        -1.835032        -1.257999        -0.953474
 O        -0.495588        -1.151804        -0.423308
 C         0.019646        -0.024149         0.204167
 O         1.176606         0.258256         0.312605
 C        -0.946300         1.172614         0.220697
 C        -1.678580         1.204370        -1.163019
 H        -3.188831        -1.129506        -3.298081
 H        -4.070761         0.280105        -2.885737
 H        -2.441767         0.363847        -3.705514
 H        -3.535413        -0.194139         0.342841
 H        -4.021868        -1.286111        -0.877875
 H        -1.858847        -2.134461        -1.668682
 H        -1.669284         1.035041         1.077675
 H        -0.382156         1.958821         0.438293
 H        -2.348329         2.117603        -1.211376
 H        -0.895855         1.445353        -1.940234
