19
Iteration:  4354
 C        -3.479654        -0.048288        -2.699847
 C        -2.502939         0.033666        -1.515592
 C        -2.843171        -0.883639        -0.300646
 C        -1.637436        -1.151401        -1.192230
 O        -0.307975        -1.003494        -0.766064
 C         0.017378        -0.045981         0.101912
 O         0.809698         0.003563         0.999213
 C        -0.829296         1.259872        -0.072108
 C        -1.639242         1.199827        -1.413163
 H        -3.995229        -1.019406        -2.664206
 H        -4.293421         0.657337        -2.704324
 H        -2.961885        -0.088650        -3.664489
 H        -2.814069        -0.467428         0.701155
 H        -3.776863        -1.490219        -0.353085
 H        -1.729195        -1.954846        -1.905549
 H        -1.533840         1.221636         0.886876
 H        -0.156618         2.099618        -0.076139
 H        -2.096410         2.179076        -1.569821
 H        -0.916077         1.081346        -2.132031
