19
Iteration:  4984charge 0 multiplicity 1
 C        -2.810925        -0.130789        -3.029021
 C        -2.490269         0.005041        -1.550962
 C        -3.268684        -0.832567        -0.598099
 C        -1.833946        -1.232220        -0.849339
 O        -0.610741        -1.116830        -0.020933
 C         0.123187         0.036805        -0.074379
 O         1.329754         0.074547         0.119940
 C        -1.006988         1.210116         0.166490
 C        -1.948964         1.355118        -1.004013
 H        -3.150338        -1.168889        -3.300088
 H        -3.635387         0.631717        -3.338609
 H        -1.836731         0.014535        -3.561438
 H        -3.592846        -0.421277         0.360418
 H        -3.909316        -1.672487        -0.898940
 H        -1.789224        -2.163670        -1.328125
 H        -1.487443         0.929831         1.054868
 H        -0.457972         2.088791         0.491036
 H        -2.664477         2.185858        -0.783492
 H        -1.359318         1.900938        -1.863391
