19
Iteration:  1501charge 0 multiplicity 1
 C        -3.066487         0.017115        -2.959533
 C        -2.510460        -0.082211        -1.510834
 C        -2.997533        -1.224360        -0.565644
 C        -1.579904        -1.302510        -1.104996
 O        -0.591156        -1.057627        -0.029396
 C         0.020723         0.117383         0.117798
 O         1.146151         0.078586         0.536014
 C        -0.752995         1.402627        -0.319976
 C        -2.145612         1.305797        -0.988375
 H        -3.654693        -0.778188        -3.464442
 H        -3.748182         0.873494        -3.044949
 H        -2.280432         0.354922        -3.525553
 H        -3.057366        -0.902245         0.429634
 H        -3.730776        -1.678792        -1.119332
 H        -1.286075        -2.056492        -1.824928
 H        -0.860704         1.822399         0.571810
 H        -0.094539         1.962435        -0.842333
 H        -2.951432         1.790318        -0.339934
 H        -2.050018         2.050671        -1.803997
