19
Iteration:  3898
 C        -3.102057         0.353857        -2.688602
 C        -2.540294        -0.050075        -1.307562
 C        -3.024077        -1.240448        -0.658194
 C        -1.604154        -1.313234        -1.226292
 O        -0.541236        -1.126551        -0.178734
 C         0.017709         0.118235        -0.026425
 O         0.703375         0.284402         0.946940
 C        -0.469528         1.074527        -1.005311
 C        -1.911903         1.199930        -0.741768
 H        -3.704517        -0.354176        -3.195083
 H        -3.768203         1.146412        -2.455295
 H        -2.326458         0.619493        -3.359015
 H        -3.197547        -1.412683         0.417463
 H        -3.665352        -1.850615        -1.269810
 H        -1.269508        -2.108942        -1.883589
 H         0.156282         1.983524        -0.703604
 H        -0.117620         0.779897        -2.096214
 H        -2.004427         1.416605         0.395734
 H        -2.323095         2.131036        -1.122805
