19
Iteration:  4173charge 0 multiplicity 1
 C        -3.099186        -0.030754        -2.946158
 C        -2.454626        -0.071150        -1.541454
 C        -3.047929        -0.818769        -0.380339
 C        -1.730235        -1.300551        -0.991512
 O        -0.481194        -1.132031        -0.378325
 C         0.027256         0.087868         0.014794
 O         1.165035         0.009023         0.461173
 C        -1.058485         1.311676         0.100206
 C        -1.789353         1.294611        -1.165345
 H        -3.496290        -0.984169        -3.336457
 H        -4.008706         0.644591        -2.891124
 H        -2.247490         0.142051        -3.680258
 H        -3.130263        -0.334759         0.619850
 H        -3.924956        -1.458498        -0.488733
 H        -1.724991        -2.170844        -1.637716
 H        -1.711935         1.048434         0.908978
 H        -0.618476         2.329167         0.411922
 H        -2.450850         2.078017        -1.262183
 H        -1.012107         1.580779        -1.907254
