19
Iteration:  2779charge 0 multiplicity 1
 C        -2.648796        -0.137826        -2.997536
 C        -2.377610        -0.036214        -1.510766
 C        -3.207119        -0.960411        -0.620524
 C        -1.801655        -1.291332        -0.803952
 O        -0.647381        -1.196232         0.036831
 C        -0.075631         0.052802         0.081816
 O         1.110225         0.235660        -0.201409
 C        -0.944583         1.317029         0.232970
 C        -1.896807         1.371834        -0.941473
 H        -3.251059        -0.992829        -3.317607
 H        -3.125622         0.755179        -3.453201
 H        -1.656399        -0.223349        -3.582399
 H        -3.687321        -0.662320         0.323389
 H        -3.961415        -1.644318        -1.194576
 H        -1.513347        -2.070397        -1.479921
 H        -1.459294         1.068779         1.232772
 H        -0.227083         2.095234         0.314770
 H        -2.871983         1.775374        -0.620127
 H        -1.452025         2.066402        -1.733330
