19
Iteration:  2966charge 0 multiplicity 1
 C        -3.415703        -0.094848        -2.748103
 C        -2.488703        -0.064319        -1.609063
 C        -2.745577        -0.896098        -0.308914
 C        -1.654989        -1.165273        -1.239951
 O        -0.317082        -1.035933        -0.573212
 C        -0.034568         0.063707         0.184925
 O         0.882629        -0.044911         1.017538
 C        -0.872615         1.345161        -0.175643
 C        -1.793565         1.264843        -1.444236
 H        -4.153627        -0.865946        -2.656050
 H        -3.966142         0.849044        -2.790537
 H        -2.816122        -0.304940        -3.616025
 H        -2.516355        -0.571188         0.740185
 H        -3.578403        -1.585635        -0.380792
 H        -1.648552        -2.150457        -1.762464
 H        -1.617759         1.422926         0.669987
 H        -0.115613         2.197709        -0.229230
 H        -2.527474         2.107856        -1.478758
 H        -1.258034         1.341546        -2.359235
