19
Iteration:  3797
 C        -3.019829         0.021583        -2.968525
 C        -2.577673        -0.015775        -1.495737
 C        -3.044945        -1.079860        -0.419105
 C        -1.679470        -1.140367        -1.096345
 O        -0.597518        -1.100267        -0.267952
 C         0.077967         0.009174         0.022755
 O         1.060158        -0.040006         0.731872
 C        -0.622357         1.319494        -0.434422
 C        -2.085672         1.362158        -0.956330
 H        -3.056952        -0.931379        -3.498415
 H        -3.990846         0.351280        -2.851241
 H        -2.492004         0.747064        -3.589515
 H        -3.078177        -0.541399         0.558637
 H        -3.722503        -1.965056        -0.544930
 H        -1.459900        -2.036442        -1.642503
 H        -0.620782         1.907422         0.467269
 H         0.126399         1.930718        -1.157193
 H        -2.679474         1.553793        -0.061954
 H        -2.230719         2.091406        -1.773964
