19
Iteration:  2040charge 0 multiplicity 1
 C        -3.219503        -0.053158        -2.876511
 C        -2.468615        -0.058213        -1.486428
 C        -2.905036        -1.011336        -0.357558
 C        -1.645680        -1.254048        -1.115819
 O        -0.328878        -1.118942        -0.517559
 C        -0.030082         0.058140         0.117516
 O         0.844255         0.061392         0.989246
 C        -0.646438         1.333800        -0.414951
 C        -2.050599         1.373752        -1.178092
 H        -3.481401        -1.017986        -3.159148
 H        -4.245628         0.354396        -2.726015
 H        -2.726870         0.328383        -3.727434
 H        -2.586533        -0.807166         0.682855
 H        -3.693792        -1.685206        -0.540672
 H        -1.661631        -2.103613        -1.906369
 H        -0.582564         2.144008         0.332649
 H         0.016150         1.816177        -1.094460
 H        -2.734870         1.700313        -0.445148
 H        -2.178423         2.107294        -2.060755
