19
Iteration:  4112charge 0 multiplicity 1
 C        -2.997396        -0.052892        -2.948137
 C        -2.411444        -0.015360        -1.562228
 C        -3.013688        -0.793828        -0.367756
 C        -1.756802        -1.249986        -0.976041
 O        -0.597980        -1.152743        -0.236438
 C         0.002767         0.042475         0.066277
 O         1.182922         0.114804         0.231242
 C        -1.052582         1.115510         0.165887
 C        -1.782272         1.323204        -1.167991
 H        -3.131513        -1.103001        -3.311953
 H        -3.972086         0.417654        -3.026111
 H        -2.348920         0.425194        -3.621817
 H        -3.157093        -0.250933         0.587632
 H        -3.961333        -1.296191        -0.676177
 H        -1.605702        -2.052945        -1.677802
 H        -1.830651         0.742255         0.859237
 H        -0.678002         2.102030         0.653534
 H        -2.651077         2.174427        -1.089680
 H        -1.101642         1.602911        -1.990078
