19
Iteration:   723
 C        -3.257238         0.019078        -2.783885
 C        -2.528848        -0.038263        -1.484157
 C        -2.983817        -1.161695        -0.575725
 C        -1.706214        -1.161706        -1.225463
 O        -0.545298        -1.155505        -0.289877
 C         0.049798         0.097222         0.077000
 O         0.858916         0.193225         0.989384
 C        -0.393604         1.278403        -0.673580
 C        -1.942669         1.247021        -0.907312
 H        -3.593220        -1.006195        -3.197724
 H        -4.054483         0.757172        -2.551877
 H        -2.648797         0.334134        -3.648266
 H        -2.968066        -1.061861         0.477154
 H        -3.830684        -1.687584        -0.910012
 H        -1.300106        -1.742217        -2.061274
 H        -0.219919         2.195689        -0.108014
 H         0.196624         1.348629        -1.704596
 H        -2.316060         1.360170         0.056529
 H        -2.361534         2.123807        -1.499243
