19
Iteration:  2667charge 0 multiplicity 1
 C        -3.349650        -0.131224        -2.877692
 C        -2.495356        -0.031903        -1.613513
 C        -2.897888        -0.898110        -0.282201
 C        -1.615373        -1.167897        -1.144431
 O        -0.317456        -1.045231        -0.514267
 C         0.010097         0.117160         0.184740
 O         1.033791        -0.007009         0.855914
 C        -1.009922         1.228488        -0.083962
 C        -1.815093         1.283005        -1.392852
 H        -3.930790        -1.104019        -2.877604
 H        -4.115702         0.606541        -2.606054
 H        -2.869140        -0.026614        -3.902546
 H        -2.953411        -0.228000         0.547416
 H        -3.725494        -1.572676        -0.412989
 H        -1.596767        -2.100480        -1.792743
 H        -1.555988         1.341273         0.919781
 H        -0.395795         2.202085        -0.081690
 H        -2.446728         2.196900        -1.416910
 H        -1.006228         1.311222        -2.171597
