19
Iteration:  1472
 C        -2.896691        -0.067238        -2.890794
 C        -2.485191        -0.083502        -1.495319
 C        -3.219379        -1.185280        -0.619639
 C        -1.718245        -1.219255        -1.106842
 O        -0.542372        -1.077342        -0.098472
 C         0.003999         0.125657         0.020783
 O         1.148643         0.178593         0.511154
 C        -0.717465         1.393852        -0.296073
 C        -2.107650         1.217158        -0.863529
 H        -3.489998        -0.917192        -3.271655
 H        -3.581006         0.845460        -3.120119
 H        -2.052013         0.198338        -3.651577
 H        -3.134309        -0.868956         0.429912
 H        -3.787353        -1.943216        -1.141205
 H        -1.469496        -1.980941        -1.840676
 H        -0.749961         1.865312         0.817145
 H        -0.067252         2.099461        -0.958696
 H        -2.875186         1.512372        -0.036869
 H        -2.030415         1.978389        -1.654219
