19
Iteration:  3546charge 0 multiplicity 1
 C        -3.166877        -0.008481        -2.943524
 C        -2.533487        -0.038786        -1.576900
 C        -3.054181        -0.972919        -0.433430
 C        -1.722702        -1.237097        -1.110033
 O        -0.454318        -1.146580        -0.467702
 C         0.054669         0.048658         0.121359
 O         0.951884        -0.001412         0.901597
 C        -0.509590         1.369596        -0.409590
 C        -2.031429         1.353384        -0.891986
 H        -3.406560        -1.098764        -3.192387
 H        -4.169141         0.469507        -2.780760
 H        -2.552235         0.391015        -3.808935
 H        -2.987590        -0.580963         0.570979
 H        -3.795687        -1.686429        -0.732764
 H        -1.562361        -2.039917        -1.872599
 H        -0.213112         2.244978         0.080569
 H         0.062582         1.387350        -1.442112
 H        -2.862944         1.492421        -0.041275
 H        -2.133877         2.198544        -1.632484
