19
Iteration:  3658
 C        -3.066714        -0.089556        -2.963578
 C        -2.423836        -0.030933        -1.601638
 C        -3.073113        -0.708178        -0.361178
 C        -1.756497        -1.245894        -0.957179
 O        -0.534716        -1.163865        -0.312654
 C         0.019980        -0.013814         0.066806
 O         1.200088         0.154159         0.325565
 C        -1.073814         1.160179         0.160594
 C        -1.736533         1.292903        -1.194741
 H        -3.172454        -1.105616        -3.372670
 H        -4.059699         0.537143        -3.100195
 H        -2.320331         0.377870        -3.622159
 H        -3.281635        -0.435435         0.710635
 H        -3.883189        -1.347545        -0.701308
 H        -1.825621        -2.215518        -1.347368
 H        -1.865927         0.800380         0.809820
 H        -0.619482         2.034384         0.585682
 H        -2.570134         2.056153        -0.966804
 H        -0.935246         1.664061        -1.850265
