19
Iteration:   380
 C        -3.290871        -0.239218        -2.899943
 C        -2.552449         0.026132        -1.528946
 C        -2.929170        -0.875370        -0.341736
 C        -1.638192        -1.138724        -1.112457
 O        -0.316176        -1.168825        -0.510755
 C         0.016208         0.004353         0.133523
 O         0.956619        -0.056594         0.893910
 C        -0.714376         1.369817        -0.230566
 C        -2.019090         1.415720        -1.208307
 H        -3.344581        -1.291998        -3.108253
 H        -4.331187         0.217285        -2.963204
 H        -2.758452         0.398259        -3.611213
 H        -2.915418        -0.372091         0.586022
 H        -3.813785        -1.319631        -0.592665
 H        -1.668082        -2.040761        -1.866200
 H        -0.789066         1.893424         0.717164
 H         0.197485         1.879039        -0.834971
 H        -2.746495         2.158953        -0.813921
 H        -1.760953         1.908094        -2.222527
