19
Iteration:  2028charge 0 multiplicity 1
 C        -3.288860        -0.047900        -2.809496
 C        -2.470761        -0.096927        -1.586972
 C        -2.928373        -1.056149        -0.434690
 C        -1.597867        -1.270981        -1.147859
 O        -0.368839        -1.133042        -0.444741
 C        -0.005553         0.097840         0.125926
 O         0.856251         0.086475         0.947761
 C        -0.632888         1.413453        -0.434741
 C        -2.021808         1.319974        -1.079685
 H        -3.621469        -0.977778        -3.088674
 H        -4.073776         0.722130        -2.752496
 H        -2.636175         0.361344        -3.493797
 H        -3.081218        -0.523064         0.521904
 H        -3.683334        -1.769612        -0.572721
 H        -1.449914        -2.168921        -1.830398
 H        -0.567517         2.119429         0.409453
 H         0.158522         1.535757        -1.188542
 H        -2.803628         1.752396        -0.512662
 H        -1.909621         1.963618        -1.970522
