19
Iteration:   108
 C        -2.886458        -0.048732        -2.964405
 C        -2.401410        -0.046019        -1.519243
 C        -3.169955        -1.028480        -0.519821
 C        -1.761763        -1.326352        -0.981610
 O        -0.728170        -1.065999         0.024741
 C        -0.004365         0.146370         0.002567
 O         1.192630         0.111028         0.068784
 C        -0.915028         1.273055         0.149277
 C        -1.810399         1.279860        -1.042883
 H        -3.591004        -0.853244        -2.981336
 H        -3.536463         0.839156        -3.328445
 H        -2.078716        -0.030878        -3.741209
 H        -3.224371        -0.716314         0.455681
 H        -3.993313        -1.617288        -0.922246
 H        -1.372505        -2.018863        -1.689102
 H        -1.393529         1.125016         1.074487
 H        -0.482056         2.284469         0.190257
 H        -2.447659         2.196969        -1.083205
 H        -1.145228         1.658451        -1.808819
