19
Iteration:   932
 C        -2.795089        -0.052231        -2.961011
 C        -2.461905        -0.061713        -1.504255
 C        -3.180960        -1.057098        -0.642506
 C        -1.706430        -1.225295        -0.937066
 O        -0.684323        -1.070883        -0.025816
 C         0.087408         0.042596        -0.024918
 O         1.274607         0.103385         0.306486
 C        -0.825079         1.306127        -0.170768
 C        -2.205700         1.344236        -0.840063
 H        -2.914738        -1.081607        -3.489956
 H        -3.647319         0.621287        -3.216354
 H        -2.009627         0.277242        -3.620344
 H        -3.317286        -0.696818         0.387686
 H        -3.803353        -1.884054        -0.842563
 H        -1.424870        -1.925651        -1.731079
 H        -0.896709         1.547747         0.862000
 H        -0.347103         1.983518        -0.671669
 H        -2.957876         1.706413        -0.163839
 H        -2.294316         1.959114        -1.881944
