19
Iteration:  3421
 C        -3.145297         0.203876        -2.780618
 C        -2.544456        -0.015176        -1.382087
 C        -2.977127        -1.230547        -0.604958
 C        -1.612012        -1.170041        -1.229190
 O        -0.619697        -1.111027        -0.214117
 C         0.106307         0.085527        -0.022758
 O         0.788790         0.135439         1.000639
 C        -0.468885         1.190839        -0.875289
 C        -1.965901         1.236893        -0.792482
 H        -3.359208        -0.736586        -3.266330
 H        -4.081240         0.782510        -2.646380
 H        -2.490144         0.895555        -3.433034
 H        -2.992478        -1.156728         0.491401
 H        -3.667981        -2.025161        -1.024638
 H        -1.265599        -1.782911        -2.076374
 H        -0.053480         2.213795        -0.482319
 H        -0.211450         1.094945        -1.885014
 H        -2.191576         1.134273         0.311800
 H        -2.338613         2.159338        -1.156127
