19
Iteration:   418charge 0 multiplicity 1
 C        -3.200495         0.030551        -2.837146
 C        -2.500776        -0.115584        -1.520483
 C        -2.986341        -1.018642        -0.441859
 C        -1.664057        -1.330232        -1.078178
 O        -0.512510        -1.134206        -0.330155
 C         0.018995         0.111112         0.026914
 O         0.972800         0.081388         0.758433
 C        -0.630825         1.425956        -0.260321
 C        -1.916901         1.250611        -1.177503
 H        -3.810617        -0.866510        -3.230737
 H        -3.893770         0.860722        -2.659036
 H        -2.532375         0.042974        -3.710599
 H        -3.039413        -0.728209         0.636019
 H        -4.027776        -1.439248        -0.750957
 H        -1.520507        -2.021221        -1.812370
 H        -0.862013         1.838513         0.715303
 H         0.031888         2.041281        -0.655097
 H        -2.801601         1.754519        -0.693465
 H        -1.564431         1.697707        -2.071755
