19
Iteration:  3423
 C        -3.167523         0.211834        -2.784281
 C        -2.517867        -0.005280        -1.383457
 C        -2.988842        -1.246192        -0.594935
 C        -1.610163        -1.185445        -1.245192
 O        -0.627716        -1.127103        -0.208643
 C         0.093220         0.110305        -0.030283
 O         0.775765         0.152756         1.004085
 C        -0.439347         1.195184        -0.875927
 C        -1.961569         1.219740        -0.778844
 H        -3.395873        -0.747833        -3.269975
 H        -4.054078         0.803303        -2.602661
 H        -2.491581         0.912503        -3.428795
 H        -2.995159        -1.153258         0.453600
 H        -3.625627        -2.018840        -1.051221
 H        -1.328651        -1.757374        -2.091981
 H        -0.041872         2.201000        -0.511990
 H        -0.137002         1.102829        -1.933657
 H        -2.140897         1.081734         0.399249
 H        -2.289051         2.149877        -1.205199
