19
Iteration:  2601charge 0 multiplicity 1
 C        -3.538465        -0.152453        -2.610628
 C        -2.490009        -0.047849        -1.477917
 C        -2.598114        -0.911232        -0.279224
 C        -1.501225        -1.228542        -1.264669
 O        -0.216233        -0.961902        -0.743562
 C        -0.081310         0.037070         0.162466
 O         0.546231        -0.156501         1.186948
 C        -0.774803         1.421879        -0.381239
 C        -1.755714         1.360728        -1.457020
 H        -4.097481        -1.148314        -2.569880
 H        -4.338588         0.543609        -2.574069
 H        -2.879588        -0.226442        -3.499013
 H        -2.356047        -0.515153         0.623807
 H        -3.551945        -1.399172        -0.404030
 H        -1.501146        -2.097837        -1.867340
 H        -1.317821         1.809087         0.409914
 H         0.087040         2.134903        -0.504504
 H        -2.482285         2.244906        -1.380690
 H        -1.191880         1.376588        -2.472492
