19
Iteration:  1619charge 0 multiplicity 1
 C        -3.035655         0.130970        -2.809879
 C        -2.488181        -0.067630        -1.411816
 C        -3.021652        -1.205752        -0.542619
 C        -1.615207        -1.268206        -1.128802
 O        -0.482432        -1.115595        -0.278611
 C         0.030864         0.095611        -0.083993
 O         0.705383         0.288113         0.922143
 C        -0.505810         1.213419        -0.767785
 C        -2.043655         1.218294        -0.753955
 H        -3.515269        -0.839161        -3.181062
 H        -3.866706         0.816564        -2.840251
 H        -2.312676         0.457777        -3.568719
 H        -3.020098        -1.043038         0.499821
 H        -3.581920        -1.943042        -0.981638
 H        -1.344705        -1.878802        -1.989506
 H        -0.168509         2.127232        -0.303366
 H        -0.073022         1.315151        -1.902375
 H        -2.279713         1.298782         0.322392
 H        -2.487007         2.117124        -1.199157
