19
Iteration:   410charge 0 multiplicity 1
 C        -3.234227        -0.042695        -2.863860
 C        -2.493976        -0.123578        -1.540604
 C        -3.006582        -1.006073        -0.369538
 C        -1.683639        -1.231717        -1.157875
 O        -0.507894        -1.067935        -0.385095
 C         0.021926         0.088871         0.080263
 O         0.991294         0.070535         0.801099
 C        -0.646939         1.361331        -0.267021
 C        -1.895691         1.227841        -1.162490
 H        -3.775543        -0.898292        -3.159287
 H        -3.947810         0.732246        -2.784984
 H        -2.424313         0.295527        -3.577162
 H        -2.995002        -0.610619         0.616805
 H        -3.881530        -1.548760        -0.727033
 H        -1.663585        -2.194266        -1.747493
 H        -0.833744         1.897237         0.830876
 H         0.179007         1.978665        -0.764832
 H        -2.653581         1.822718        -0.733020
 H        -1.691517         1.777185        -2.080521
