19
Iteration:  1649
 C        -3.147762         0.198436        -2.733299
 C        -2.472833        -0.077037        -1.415825
 C        -2.979530        -1.361237        -0.688867
 C        -1.587466        -1.277207        -1.252138
 O        -0.625507        -1.060742        -0.176573
 C         0.091613         0.155855         0.069656
 O         0.768562         0.294516         1.051571
 C        -0.451578         1.194826        -1.028208
 C        -2.005347         1.260965        -0.743421
 H        -3.787398        -0.696475        -3.001235
 H        -3.823228         1.069268        -2.596474
 H        -2.464668         0.240293        -3.673544
 H        -2.964290        -1.578628         0.399262
 H        -3.628867        -2.076205        -1.165075
 H        -1.253513        -1.851927        -2.103897
 H        -0.021029         2.205452        -0.792033
 H        -0.277585         0.874460        -1.958228
 H        -2.018606         1.389563         0.442941
 H        -2.648320         2.143841        -0.875270
