19
Iteration:   388charge 0 multiplicity 1
 C        -3.266634        -0.137648        -2.908654
 C        -2.599539         0.011058        -1.549592
 C        -2.936581        -0.925293        -0.389232
 C        -1.681959        -1.210820        -1.056780
 O        -0.365062        -1.120874        -0.502952
 C         0.018686         0.029711         0.176428
 O         1.012965        -0.025131         0.886711
 C        -0.694731         1.331517        -0.276512
 C        -2.000652         1.382168        -1.206710
 H        -3.415162        -1.194276        -2.991759
 H        -4.265038         0.181817        -2.913331
 H        -2.655244         0.282620        -3.770017
 H        -2.778751        -0.477423         0.570100
 H        -3.853607        -1.573544        -0.491123
 H        -1.661352        -1.930556        -1.878114
 H        -0.839743         2.006955         0.767198
 H         0.187567         1.879116        -0.817120
 H        -2.699177         2.087770        -0.813867
 H        -1.669604         1.884842        -2.111781
