19
Iteration:  3168charge 0 multiplicity 1
 C        -3.043595        -0.103623        -2.922577
 C        -2.480088        -0.066731        -1.516648
 C        -3.150914        -0.846709        -0.444676
 C        -1.750073        -1.273260        -0.999089
 O        -0.451241        -1.126321        -0.386368
 C         0.071707         0.114780         0.143489
 O         1.212683         0.140441         0.502407
 C        -1.024200         1.257423         0.073860
 C        -1.846944         1.247742        -1.244501
 H        -3.771577        -0.894303        -2.897269
 H        -3.521601         0.815215        -3.220874
 H        -2.380947        -0.273434        -3.763476
 H        -3.226350        -0.433157         0.580314
 H        -3.959403        -1.542146        -0.862371
 H        -1.732169        -2.251617        -1.580938
 H        -1.695385         1.190870         0.921963
 H        -0.458146         2.177540         0.361221
 H        -2.713678         2.095650        -1.223389
 H        -1.245994         1.521157        -2.101033
