19
Iteration:    88
 C        -2.871733        -0.087637        -2.932982
 C        -2.413673        -0.041614        -1.513490
 C        -3.104022        -0.812462        -0.466767
 C        -1.707038        -1.228632        -0.972396
 O        -0.649271        -1.214971        -0.014301
 C        -0.017328         0.028230         0.069939
 O         1.199465         0.172771         0.062388
 C        -1.022830         1.194270         0.157931
 C        -1.867324         1.336586        -1.182762
 H        -3.532645        -0.934697        -3.262983
 H        -3.476816         0.841132        -3.206398
 H        -1.953380         0.050454        -3.560345
 H        -3.076406        -0.576458         0.547321
 H        -3.929789        -1.461818        -0.767978
 H        -1.700947        -2.183218        -1.474898
 H        -1.699149         1.043107         0.868151
 H        -0.467607         1.992415         0.465203
 H        -2.780104         2.049448        -1.127289
 H        -1.358630         1.774910        -2.017543
