19
Iteration:  3375
 C        -2.946419         0.021777        -2.907375
 C        -2.476394         0.000622        -1.478190
 C        -3.125832        -1.085171        -0.590661
 C        -1.751378        -1.217789        -1.097164
 O        -0.555757        -1.129771        -0.241493
 C         0.026628         0.028562         0.052147
 O         1.044566         0.105475         0.645088
 C        -0.573288         1.310224        -0.473523
 C        -2.142359         1.278296        -0.762088
 H        -2.870430        -0.988572        -3.314501
 H        -3.948915         0.521332        -3.084916
 H        -2.228065         0.657933        -3.414200
 H        -3.282239        -0.731392         0.502244
 H        -3.976713        -1.668542        -0.976163
 H        -1.532470        -2.124911        -1.765213
 H        -0.379756         2.005745         0.401705
 H         0.038070         1.661033        -1.284074
 H        -2.627946         1.450667         0.143072
 H        -2.370239         2.150054        -1.426853
