19
Iteration:  2378charge 0 multiplicity 1
 C        -2.783988        -0.160100        -3.054321
 C        -2.411086        -0.053203        -1.565254
 C        -3.241802        -0.781507        -0.452046
 C        -1.790480        -1.224047        -0.902488
 O        -0.543330        -1.277704        -0.147114
 C         0.011270         0.146226         0.029691
 O         1.219307         0.294714         0.040575
 C        -1.099464         1.121770         0.251266
 C        -1.839124         1.275635        -1.018661
 H        -2.868096        -1.201741        -3.296917
 H        -3.826972         0.316590        -3.312517
 H        -2.169285         0.412424        -3.755637
 H        -3.330577        -0.241116         0.519902
 H        -3.951426        -1.657505        -0.584753
 H        -1.896693        -2.171243        -1.382815
 H        -1.820112         0.916807         1.118561
 H        -0.733149         2.007330         0.497118
 H        -2.636425         2.162280        -0.887830
 H        -0.943272         1.873838        -1.531204
