19
Iteration:  3620
 C        -3.107117        -0.078248        -2.885415
 C        -2.487722        -0.013865        -1.481443
 C        -3.083802        -0.929431        -0.530381
 C        -1.745320        -1.187472        -1.118610
 O        -0.624394        -1.112890        -0.226431
 C         0.060344         0.051582         0.079896
 O         1.203447         0.046815         0.459201
 C        -0.856705         1.308280         0.031176
 C        -1.845859         1.279294        -1.122507
 H        -3.488336        -1.082500        -3.174254
 H        -3.888927         0.610257        -3.038118
 H        -2.235918         0.186524        -3.551604
 H        -3.056279        -0.758011         0.522647
 H        -3.809762        -1.606061        -0.963945
 H        -1.602836        -2.104415        -1.754261
 H        -1.320817         1.550343         1.008954
 H        -0.172990         2.173126        -0.161322
 H        -2.687265         1.908476        -1.078044
 H        -1.428861         1.603229        -2.052927
