19
Iteration:  1381charge 0 multiplicity 1
 C        -2.960006         0.196194        -2.846943
 C        -2.549562        -0.065672        -1.431341
 C        -3.087852        -1.280783        -0.760832
 C        -1.611186        -1.243989        -1.011424
 O        -0.616491        -1.035187         0.045018
 C         0.027519         0.133590         0.017946
 O         1.005833         0.203449         0.673682
 C        -0.587559         1.257592        -0.829322
 C        -2.098568         1.166519        -0.700635
 H        -2.998207        -0.770045        -3.474556
 H        -3.992938         0.659997        -2.913856
 H        -2.277442         0.932635        -3.288711
 H        -3.395202        -1.389413         0.264103
 H        -3.609219        -1.899291        -1.489129
 H        -1.191705        -1.943423        -1.776164
 H        -0.167657         2.101278        -0.423349
 H        -0.295744         1.158575        -1.838248
 H        -2.424339         1.034981         0.424512
 H        -2.699102         2.053830        -1.062562
