19
Iteration:  1223
 C        -3.333443        -0.091745        -2.803209
 C        -2.516287        -0.012596        -1.531636
 C        -2.855801        -1.054992        -0.476565
 C        -1.598171        -1.235470        -1.214636
 O        -0.407200        -1.112116        -0.411864
 C        -0.019295         0.066884         0.103812
 O         0.880704         0.124883         0.929521
 C        -0.640653         1.317120        -0.337172
 C        -1.970472         1.317593        -1.128448
 H        -3.734716        -1.074031        -2.972145
 H        -4.288119         0.466660        -2.827810
 H        -2.688077         0.372485        -3.637203
 H        -2.704170        -0.797937         0.563864
 H        -3.702323        -1.668252        -0.741327
 H        -1.395130        -1.998425        -1.913941
 H        -0.737290         1.803900         0.678993
 H         0.110872         1.761468        -0.845384
 H        -2.829305         1.946776        -0.668749
 H        -1.621926         1.886613        -2.104720
