19
Iteration:   788charge 0 multiplicity 1
 C        -3.056397         0.290675        -2.782068
 C        -2.570418         0.013308        -1.318605
 C        -2.957281        -1.304718        -0.571765
 C        -1.652924        -1.386033        -1.171540
 O        -0.550156        -1.178945        -0.236741
 C         0.039918         0.050157        -0.052486
 O         0.660716         0.392034         0.913379
 C        -0.420917         1.202704        -0.933899
 C        -1.933429         1.185926        -0.677662
 H        -3.077857        -0.602671        -3.569422
 H        -4.067869         0.821120        -2.789849
 H        -2.331685         0.984642        -3.314036
 H        -2.935987        -1.264904         0.480093
 H        -3.813217        -1.797939        -0.967623
 H        -1.515726        -2.026575        -2.095083
 H         0.109834         2.052964        -0.607239
 H        -0.260430         0.967437        -1.925889
 H        -2.180969         1.205310         0.337973
 H        -2.315132         2.216009        -1.108943
