19
Iteration:  2385
 C        -2.835221        -0.133203        -3.101368
 C        -2.446642        -0.066871        -1.582200
 C        -3.223097        -0.708818        -0.432355
 C        -1.792812        -1.269566        -0.886046
 O        -0.537715        -1.233482        -0.192289
 C         0.041128         0.099226         0.045931
 O         1.227624         0.322340         0.081212
 C        -1.127004         1.139289         0.315638
 C        -1.833788         1.217897        -1.044420
 H        -2.881208        -1.223193        -3.310342
 H        -3.775723         0.301668        -3.252290
 H        -2.194561         0.231197        -3.929820
 H        -3.312650        -0.278378         0.558296
 H        -3.929579        -1.476041        -0.587946
 H        -1.708889        -2.164134        -1.496356
 H        -1.692761         0.813993         1.264643
 H        -0.508700         2.096779         0.631706
 H        -2.565460         1.935847        -1.071873
 H        -1.079744         1.597357        -1.671722
