19
Iteration:  2468
 C        -3.308799        -0.151314        -2.889079
 C        -2.465587        -0.082009        -1.649912
 C        -2.915601        -0.989243        -0.398054
 C        -1.629559        -1.219546        -1.129725
 O        -0.440441        -1.119709        -0.384207
 C         0.021849         0.116647         0.126496
 O         1.036944         0.060533         0.807388
 C        -0.847142         1.369746        -0.124828
 C        -1.892084         1.332649        -1.241570
 H        -4.035183        -0.978671        -2.789491
 H        -3.968322         0.772301        -2.972812
 H        -2.613303        -0.095731        -3.723539
 H        -2.885901        -0.646862         0.645545
 H        -3.856974        -1.432522        -0.607641
 H        -1.556543        -2.150074        -1.780893
 H        -1.127121         1.514297         0.894997
 H        -0.116855         2.208902        -0.353312
 H        -2.826853         2.044278        -1.047270
 H        -1.330557         1.769593        -2.201742
