19
Iteration:  2753charge 0 multiplicity 1
 C        -2.718521        -0.092428        -3.001841
 C        -2.377649        -0.125085        -1.551726
 C        -3.216873        -0.867736        -0.539358
 C        -1.769481        -1.282833        -0.913169
 O        -0.676823        -1.075164         0.008413
 C         0.034679         0.092886         0.022506
 O         1.246917         0.155352        -0.023544
 C        -1.055887         1.246245         0.197243
 C        -1.985897         1.268707        -0.990943
 H        -3.059888        -1.108303        -3.377570
 H        -3.485715         0.675366        -3.232097
 H        -1.884615         0.272095        -3.655694
 H        -3.328095        -0.422172         0.456947
 H        -3.984478        -1.550479        -0.683615
 H        -1.424414        -2.116645        -1.621916
 H        -1.397207         0.854725         1.233647
 H        -0.452914         2.225850         0.248281
 H        -2.863954         1.823971        -0.979024
 H        -1.389093         1.773495        -1.675798
