19
Iteration:  1408charge 0 multiplicity 1
 C        -2.805758         0.071969        -2.885128
 C        -2.541514        -0.062466        -1.484028
 C        -3.123250        -1.238704        -0.606688
 C        -1.709228        -1.305020        -1.059329
 O        -0.662593        -1.081635        -0.111471
 C         0.028436         0.128816         0.013446
 O         1.115395         0.189288         0.600940
 C        -0.647510         1.370504        -0.595323
 C        -2.147701         1.249753        -0.718172
 H        -2.651197        -0.863651        -3.321043
 H        -3.837248         0.287258        -3.137176
 H        -2.213573         0.958408        -3.193416
 H        -3.214835        -1.065864         0.493649
 H        -3.742924        -2.002894        -1.114333
 H        -1.524287        -2.081668        -1.777748
 H        -0.366906         2.189686         0.233639
 H        -0.242267         1.599929        -1.679858
 H        -2.722101         1.222090         0.122794
 H        -2.598443         2.045398        -1.274673
