19
Iteration:  1492
 C        -3.019933         0.049684        -2.975635
 C        -2.535578        -0.117990        -1.480710
 C        -3.005598        -1.259840        -0.555167
 C        -1.620576        -1.313288        -1.036580
 O        -0.675453        -1.080667        -0.105342
 C         0.037389         0.111481         0.052407
 O         1.162885         0.157243         0.543037
 C        -0.709214         1.389242        -0.275454
 C        -2.108989         1.330266        -0.984174
 H        -3.557341        -0.851942        -3.375642
 H        -3.686276         0.976380        -3.142058
 H        -2.153162         0.182503        -3.684027
 H        -3.280613        -0.984070         0.450296
 H        -3.708282        -1.807304        -1.108619
 H        -1.249471        -2.009202        -1.780086
 H        -0.692647         1.821803         0.709038
 H        -0.173492         2.064507        -0.832706
 H        -2.900237         1.654280        -0.146677
 H        -2.071598         2.036471        -1.868061
