19
Iteration:  2127
 C        -3.545394        -0.063485        -2.765906
 C        -2.445816        -0.033666        -1.538936
 C        -2.728300        -1.047024        -0.343056
 C        -1.550143        -1.235616        -1.242023
 O        -0.272709        -1.090682        -0.593701
 C        -0.082029         0.067400         0.160388
 O         0.761392         0.070780         1.020717
 C        -0.793714         1.356920        -0.197845
 C        -1.792254         1.304107        -1.353730
 H        -4.071087        -0.986432        -2.850069
 H        -4.211355         0.818667        -2.605650
 H        -3.017885         0.098388        -3.669663
 H        -2.623007        -0.641534         0.652487
 H        -3.595389        -1.736718        -0.402048
 H        -1.541975        -2.101047        -1.993711
 H        -1.084009         1.624031         0.835765
 H         0.085397         2.072064        -0.671965
 H        -2.470601         2.106358        -1.343405
 H        -1.259189         1.465466        -2.253393
