19
Iteration:  2743charge 0 multiplicity 1
 C        -2.785881        -0.083213        -3.078841
 C        -2.444220        -0.054586        -1.558696
 C        -3.129513        -0.973772        -0.456099
 C        -1.781765        -1.252440        -0.846388
 O        -0.646805        -1.106298        -0.046969
 C         0.030433         0.120366         0.007601
 O         1.254178         0.113472         0.074357
 C        -1.032474         1.237954         0.178280
 C        -1.950041         1.315321        -1.100824
 H        -2.955487        -1.117867        -3.533400
 H        -3.711192         0.529516        -3.137000
 H        -1.894039         0.461870        -3.520094
 H        -3.105241        -0.426171         0.517983
 H        -3.992022        -1.503295        -0.739709
 H        -1.561392        -2.161911        -1.533142
 H        -1.737125         0.970520         1.141397
 H        -0.590910         2.247201         0.533838
 H        -2.793208         1.911422        -0.887053
 H        -1.475837         1.842964        -1.878976
