19
Iteration:  2900charge 0 multiplicity 1
 C        -3.010348        -0.142597        -3.033933
 C        -2.483272        -0.007302        -1.554935
 C        -3.036705        -0.912977        -0.394198
 C        -1.753096        -1.245012        -1.039394
 O        -0.524247        -1.063366        -0.220494
 C         0.013121         0.065978         0.041105
 O         1.153348         0.076448         0.378058
 C        -0.974928         1.248740         0.144554
 C        -1.869637         1.343213        -1.174257
 H        -3.038073        -1.111971        -3.482703
 H        -4.031960         0.244955        -3.160333
 H        -2.265421         0.369309        -3.650681
 H        -3.015385        -0.415021         0.614407
 H        -3.941119        -1.539756        -0.476361
 H        -1.651528        -2.223981        -1.403460
 H        -1.640730         0.918810         1.018999
 H        -0.531329         2.265672         0.286435
 H        -2.588657         2.028871        -1.087552
 H        -1.202109         1.642022        -1.901251
