19
Iteration:  4708charge 0 multiplicity 1
 C        -3.469084        -0.097119        -2.711315
 C        -2.535532        -0.037395        -1.537664
 C        -2.849802        -0.751378        -0.379823
 C        -1.629594        -1.208651        -1.109203
 O        -0.267265        -0.971962        -0.725868
 C         0.084504         0.093355         0.088831
 O         0.740308        -0.189913         1.096782
 C        -0.781497         1.309657        -0.150425
 C        -1.725258         1.217392        -1.435894
 H        -3.884613        -1.115019        -2.919674
 H        -4.395141         0.488090        -2.623057
 H        -2.944476         0.188680        -3.624326
 H        -2.575732        -0.346343         0.604715
 H        -3.508981        -1.589643        -0.244639
 H        -1.720773        -2.077314        -1.671298
 H        -1.345410         1.554527         0.714933
 H        -0.162752         2.185626        -0.437418
 H        -2.354584         2.195441        -1.464030
 H        -1.022393         1.376960        -2.289871
