19
Iteration:   960charge 0 multiplicity 1
 C        -2.681284        -0.054724        -2.989751
 C        -2.493827        -0.093868        -1.454144
 C        -3.244144        -1.069860        -0.559484
 C        -1.785124        -1.361620        -0.905850
 O        -0.613835        -1.169334        -0.107300
 C        -0.003770         0.107173         0.017425
 O         1.176138         0.127820         0.192243
 C        -0.784700         1.472078        -0.062146
 C        -2.102528         1.342049        -0.899642
 H        -2.499807        -0.980773        -3.434479
 H        -3.563029         0.359568        -3.466426
 H        -1.871497         0.606935        -3.499066
 H        -3.424602        -0.678913         0.443832
 H        -4.111915        -1.721551        -0.876944
 H        -1.538718        -2.091837        -1.751378
 H        -0.945984         1.844574         0.993424
 H         0.028400         2.245037        -0.653141
 H        -2.822948         1.589622        -0.065919
 H        -2.328120         1.977903        -1.656009
