19
Iteration:   215charge 0 multiplicity 1
 C        -3.079936        -0.150989        -2.907581
 C        -2.555045        -0.010227        -1.529780
 C        -3.115685        -0.880211        -0.405418
 C        -1.740931        -1.188239        -1.000644
 O        -0.436145        -1.063901        -0.492831
 C         0.000500         0.044762         0.109934
 O         1.105425         0.029252         0.612618
 C        -0.771487         1.294104        -0.082780
 C        -1.881704         1.273272        -1.114496
 H        -3.102690        -1.239022        -3.048903
 H        -4.101120         0.315883        -3.062575
 H        -2.424937         0.302068        -3.730930
 H        -3.316048        -0.390110         0.561085
 H        -3.895264        -1.642815        -0.648395
 H        -1.762773        -2.094889        -1.524770
 H        -1.373948         1.378300         0.947988
 H        -0.104199         2.266076        -0.205562
 H        -2.641591         1.992655        -0.748524
 H        -1.470900         1.661991        -2.139014
