19
Iteration:  2729charge 0 multiplicity 1
 C        -2.866336        -0.064479        -3.020393
 C        -2.480150        -0.060309        -1.518001
 C        -3.129954        -0.898211        -0.390291
 C        -1.710460        -1.252995        -0.986804
 O        -0.542029        -1.152880        -0.107833
 C        -0.023601         0.098774         0.080493
 O         1.166383         0.129170         0.190364
 C        -0.994398         1.227679         0.090156
 C        -1.908104         1.356283        -1.122791
 H        -2.795838        -1.120011        -3.337314
 H        -3.830807         0.334974        -3.389269
 H        -2.234081         0.487177        -3.668717
 H        -3.434128        -0.579623         0.544838
 H        -3.747076        -1.751918        -0.657971
 H        -1.689378        -2.205710        -1.478264
 H        -1.639914         0.885367         0.904869
 H        -0.450654         2.176933         0.256433
 H        -2.664595         2.131769        -0.961700
 H        -1.366651         1.728321        -1.973446
