19
Iteration:  1634charge 0 multiplicity 1
 C        -3.126928         0.123786        -2.766740
 C        -2.515184        -0.064549        -1.375493
 C        -2.982307        -1.307502        -0.650572
 C        -1.566849        -1.245012        -1.164703
 O        -0.520544        -1.132450        -0.209982
 C        -0.022166         0.155438         0.014187
 O         0.710903         0.258876         0.967237
 C        -0.442983         1.335265        -0.964757
 C        -1.969222         1.207475        -0.689728
 H        -3.717693        -0.695477        -3.072827
 H        -3.733101         1.048100        -2.786163
 H        -2.336499         0.389085        -3.441344
 H        -3.203569        -1.208869         0.446405
 H        -3.797380        -1.837556        -1.273921
 H        -1.278468        -1.962090        -1.964901
 H         0.092859         2.260292        -0.664315
 H        -0.209157         1.053315        -2.053535
 H        -2.191117         1.053503         0.334290
 H        -2.397519         2.008971        -1.293564
