19
Iteration:   493charge 0 multiplicity 1
 C        -3.050945        -0.185040        -2.934053
 C        -2.425588        -0.054117        -1.530048
 C        -3.130339        -0.841979        -0.436851
 C        -1.770139        -1.244797        -0.935156
 O        -0.508144        -1.051762        -0.378477
 C         0.024077         0.104899         0.104005
 O         1.183616        -0.002032         0.451831
 C        -0.910870         1.289853         0.051812
 C        -1.855273         1.336487        -1.189192
 H        -3.231330        -1.349624        -3.103794
 H        -4.028960         0.425706        -3.071653
 H        -2.471687         0.265987        -3.789980
 H        -3.238808        -0.616260         0.654356
 H        -3.989052        -1.553604        -0.790252
 H        -1.692702        -1.969233        -1.651480
 H        -1.595348         1.203517         0.877253
 H        -0.259562         2.287633         0.250581
 H        -2.731748         2.079874        -0.890501
 H        -1.352974         1.807934        -2.077329
