19
Iteration:  4021charge 0 multiplicity 1
 C        -3.025828        -0.036982        -2.965065
 C        -2.473239        -0.017402        -1.516607
 C        -3.032669        -1.036342        -0.517037
 C        -1.708696        -1.245700        -1.076820
 O        -0.608693        -1.139707        -0.179163
 C        -0.031657         0.038783         0.062906
 O         1.113589        -0.008693         0.468670
 C        -0.646784         1.450481        -0.137309
 C        -2.083176         1.340342        -0.987417
 H        -3.499402        -0.987525        -3.008497
 H        -3.779810         0.751208        -3.163682
 H        -2.259026         0.085143        -3.713295
 H        -3.068670        -0.751679         0.513135
 H        -3.753801        -1.706723        -0.975719
 H        -1.504010        -2.075424        -1.772746
 H        -0.861983         1.935849         0.840014
 H         0.263485         1.983798        -0.775137
 H        -2.779243         1.641870        -0.063684
 H        -2.036611         2.160042        -1.712350
