19
Iteration:  3119
 C        -3.371084        -0.138860        -2.771057
 C        -2.486950        -0.055682        -1.520339
 C        -2.832952        -0.894700        -0.401045
 C        -1.676952        -1.255957        -1.271870
 O        -0.397840        -1.154401        -0.478351
 C        -0.063980         0.119711         0.179929
 O         0.929736         0.063862         0.929230
 C        -0.756851         1.326925        -0.232129
 C        -1.845501         1.290379        -1.286583
 H        -3.707308        -1.144847        -3.059765
 H        -4.058914         0.699085        -2.994993
 H        -2.661472         0.275305        -3.524804
 H        -2.434972        -0.687776         0.579949
 H        -3.782198        -1.392148        -0.407204
 H        -1.569558        -2.035559        -2.052780
 H        -1.126768         1.757909         0.745056
 H        -0.027613         2.115927        -0.493077
 H        -2.528969         1.992768        -1.006131
 H        -1.425942         1.745294        -2.204699
