19
Iteration:  2074charge 0 multiplicity 1
 C        -3.212051        -0.257909        -2.851272
 C        -2.513617         0.019072        -1.477447
 C        -2.826178        -0.905164        -0.346954
 C        -1.620824        -1.187000        -1.144851
 O        -0.312454        -1.048644        -0.662775
 C        -0.064486         0.065059         0.056341
 O         0.716790        -0.069362         0.993990
 C        -0.635721         1.426230        -0.268932
 C        -1.980909         1.360018        -1.170860
 H        -3.193436        -1.282315        -2.877621
 H        -4.264397         0.000815        -2.659582
 H        -2.899132         0.324066        -3.691273
 H        -2.600752        -0.509522         0.638553
 H        -3.569964        -1.713793        -0.124429
 H        -1.779795        -2.095074        -1.805235
 H        -0.504479         2.038327         0.643292
 H         0.102204         1.696169        -1.050852
 H        -2.772857         1.802620        -0.600075
 H        -1.966943         1.969548        -2.172882
