19
Iteration:  4260charge 0 multiplicity 1
 C        -3.314553        -0.006924        -2.845259
 C        -2.577618        -0.017256        -1.504939
 C        -2.887361        -0.957958        -0.328797
 C        -1.674808        -1.158184        -1.220176
 O        -0.404150        -1.020714        -0.535937
 C        -0.002475        -0.014398         0.163717
 O         0.929057        -0.041573         0.916920
 C        -0.683477         1.290062        -0.239831
 C        -1.921453         1.292414        -1.233717
 H        -3.597356        -1.051258        -3.112288
 H        -4.302431         0.561683        -2.928596
 H        -2.568523         0.285885        -3.672652
 H        -2.590915        -0.656891         0.687004
 H        -3.623774        -1.806633        -0.279593
 H        -1.459678        -2.030347        -1.781202
 H        -0.809108         1.919158         0.592919
 H         0.265012         1.636608        -0.774146
 H        -2.749580         1.944062        -0.913980
 H        -1.449005         1.646943        -2.247631
