19
Iteration:  2711
 C        -2.976281        -0.154652        -2.898385
 C        -2.451491        -0.013135        -1.521552
 C        -3.094492        -0.899617        -0.501277
 C        -1.755832        -1.206196        -0.960022
 O        -0.515138        -1.210430        -0.271591
 C        -0.000865         0.034255         0.059075
 O         1.140049         0.222714         0.394268
 C        -0.955814         1.233109         0.108317
 C        -1.874555         1.295227        -1.185463
 H        -2.975848        -1.156086        -3.431540
 H        -4.023059         0.226189        -2.938916
 H        -2.389417         0.508038        -3.648204
 H        -3.041081        -0.436201         0.524956
 H        -4.030703        -1.346831        -0.742993
 H        -1.738927        -2.010114        -1.773423
 H        -1.631350         1.402992         1.077133
 H        -0.249755         2.121334        -0.036821
 H        -2.608161         2.070459        -1.025583
 H        -1.217443         1.539285        -2.024948
