19
Iteration:    63
 C        -2.879239        -0.171311        -3.036101
 C        -2.395012        -0.034260        -1.558113
 C        -3.115784        -0.752141        -0.391338
 C        -1.791979        -1.234404        -0.829148
 O        -0.497988        -1.262499        -0.251313
 C        -0.063496         0.044022        -0.003060
 O         1.129779         0.193716         0.186972
 C        -1.041280         1.198441         0.198008
 C        -1.806394         1.316052        -1.085018
 H        -3.298508        -1.157807        -3.229029
 H        -3.787405         0.496020        -3.328100
 H        -2.096983         0.228320        -3.759221
 H        -3.231770         0.011523         0.396940
 H        -4.023893        -1.300894        -0.617921
 H        -1.953181        -2.163638        -1.364972
 H        -1.692910         1.125761         1.067951
 H        -0.352192         2.098298         0.475289
 H        -2.579094         2.161636        -1.137136
 H        -1.191412         1.784263        -1.873650
