19
Iteration:  1713charge 0 multiplicity 1
 C        -3.058338         0.038390        -2.854695
 C        -2.483504        -0.117747        -1.434634
 C        -3.072756        -1.138573        -0.616185
 C        -1.602239        -1.249642        -1.148259
 O        -0.563714        -1.077311        -0.232701
 C         0.003034         0.166388         0.055357
 O         0.943634         0.184113         0.873540
 C        -0.574158         1.319566        -0.720133
 C        -2.064670         1.188929        -0.758684
 H        -2.987903        -0.790295        -3.509245
 H        -4.134930         0.226585        -2.812171
 H        -2.550815         0.833346        -3.455834
 H        -3.172617        -0.990109         0.478631
 H        -3.629382        -1.909123        -1.136021
 H        -1.405492        -2.026350        -1.844670
 H        -0.084266         2.210287        -0.226339
 H        -0.003418         1.404404        -1.695256
 H        -2.577225         1.433856         0.208319
 H        -2.529726         1.999436        -1.366105
