19
Iteration:  2292charge 0 multiplicity 1
 C        -2.890911        -0.022479        -2.938670
 C        -2.429747        -0.093464        -1.504833
 C        -3.136486        -1.083896        -0.665988
 C        -1.650747        -1.268382        -0.939723
 O        -0.679387        -1.091165         0.048788
 C         0.084390         0.131357         0.006029
 O         1.256824         0.085617         0.177844
 C        -0.879598         1.315320         0.081249
 C        -2.084318         1.329498        -1.054194
 H        -3.515555        -0.862389        -3.110269
 H        -3.462101         0.992848        -3.043429
 H        -2.154716        -0.103088        -3.731882
 H        -3.622805        -0.569073         0.227597
 H        -3.918238        -1.764741        -1.070188
 H        -1.391739        -1.898374        -1.733081
 H        -1.443118         1.247914         0.948591
 H        -0.291396         2.206694         0.005389
 H        -2.992756         1.934116        -0.754644
 H        -1.812478         1.792251        -2.016469
