19
Iteration:  2811
 C        -2.539905        -0.079022        -2.958074
 C        -2.462787        -0.017762        -1.463081
 C        -3.109856        -0.935399        -0.518304
 C        -1.724910        -1.265220        -0.882688
 O        -0.729908        -1.105110         0.092223
 C        -0.069033         0.095954        -0.008131
 O         1.098797         0.130956        -0.273421
 C        -1.036604         1.239016         0.230212
 C        -1.934085         1.285755        -0.970641
 H        -3.108756        -0.870185        -3.466716
 H        -2.912689         0.854454        -3.438114
 H        -1.437903        -0.312238        -3.242287
 H        -3.261834        -0.563587         0.487551
 H        -3.937110        -1.586105        -1.012941
 H        -1.460675        -1.903472        -1.698724
 H        -1.643747         0.892694         1.226356
 H        -0.670709         2.210369         0.540211
 H        -2.803562         1.800890        -0.783405
 H        -1.371136         1.771891        -1.724393
