19
Iteration:  3922
 C        -3.105494         0.230855        -2.816974
 C        -2.502768         0.018158        -1.367575
 C        -3.079756        -1.242313        -0.642746
 C        -1.654773        -1.166011        -1.124892
 O        -0.546579        -1.282692        -0.186996
 C         0.064511         0.051505        -0.047812
 O         0.771646         0.233913         0.930272
 C        -0.420312         1.265067        -0.922979
 C        -1.988400         1.279382        -0.686692
 H        -3.370093        -0.751804        -3.138056
 H        -4.114431         0.623943        -2.609729
 H        -2.551512         0.671746        -3.599523
 H        -3.099194        -1.246682         0.411562
 H        -3.613992        -2.045024        -1.034503
 H        -1.339171        -1.753637        -2.007319
 H         0.395253         2.031675        -0.705912
 H        -0.309834         0.986259        -2.106586
 H        -2.221397         1.400404         0.429251
 H        -2.367139         2.212044        -1.045767
