19
Iteration:  1970charge 0 multiplicity 1
 C        -3.135233         0.024154        -2.857866
 C        -2.524900        -0.005723        -1.435575
 C        -3.000056        -1.208537        -0.634821
 C        -1.520396        -1.203668        -1.131701
 O        -0.610382        -1.041815        -0.121610
 C         0.009855         0.134416         0.066302
 O         0.935404         0.118215         0.793778
 C        -0.569069         1.278976        -0.639223
 C        -2.074833         1.254707        -0.852921
 H        -3.571866        -0.965964        -3.152927
 H        -3.968795         0.642753        -2.932356
 H        -2.333336         0.138157        -3.494045
 H        -3.024412        -1.261158         0.457682
 H        -3.671797        -1.973542        -1.167833
 H        -1.137489        -1.659887        -1.999946
 H        -0.040776         2.181035        -0.296995
 H         0.024816         1.348815        -1.689662
 H        -2.651278         1.595696         0.032753
 H        -2.282203         2.030212        -1.510515
