19
Iteration:  4569charge 0 multiplicity 1
 C        -2.791332        -0.083137        -2.929815
 C        -2.367053         0.010320        -1.485428
 C        -3.152648        -0.750478        -0.422135
 C        -1.814791        -1.222862        -0.902389
 O        -0.492155        -1.236855        -0.238273
 C        -0.062364         0.023090         0.036922
 O         1.136002         0.109206         0.126410
 C        -1.071277         1.200674         0.159058
 C        -1.865046         1.336073        -1.131938
 H        -3.699866        -0.696649        -3.149423
 H        -2.983097         0.971097        -3.228771
 H        -1.955285        -0.388308        -3.474304
 H        -3.262759        -0.465719         0.624169
 H        -3.978034        -1.438958        -0.580385
 H        -1.764276        -2.138236        -1.408506
 H        -1.833530         0.826903         0.888903
 H        -0.508187         2.101516         0.546439
 H        -2.707302         1.990033        -1.119526
 H        -1.333081         1.701196        -2.060221
