19
Iteration:  2062
 C        -3.203703        -0.203484        -2.796478
 C        -2.551414        -0.056337        -1.502393
 C        -2.812145        -0.927033        -0.280422
 C        -1.621099        -1.153977        -1.198175
 O        -0.344178        -1.110932        -0.613571
 C        -0.053424         0.048855         0.064407
 O         0.732574         0.002279         0.976269
 C        -0.636353         1.344989        -0.350011
 C        -2.016512         1.383099        -1.103484
 H        -3.057125        -1.135084        -3.215592
 H        -4.247430        -0.009660        -3.047104
 H        -2.569009         0.300086        -3.449170
 H        -2.646902        -0.276344         0.577307
 H        -3.596407        -1.664177        -0.302042
 H        -1.595589        -1.976376        -2.008971
 H        -0.562456         2.099300         0.473428
 H         0.077224         1.825818        -1.034277
 H        -2.729996         1.959871        -0.583957
 H        -1.781903         1.962213        -2.055330
