19
Iteration:  4318
 C        -3.498001        -0.086324        -2.680049
 C        -2.442562        -0.024498        -1.580103
 C        -2.756661        -0.873657        -0.362908
 C        -1.608284        -1.183645        -1.214577
 O        -0.363119        -1.036110        -0.621020
 C        -0.016587         0.021995         0.171271
 O         0.786176        -0.188430         1.005782
 C        -0.710877         1.401025        -0.213476
 C        -1.802019         1.312763        -1.368994
 H        -3.576191        -1.212981        -2.993783
 H        -4.517608         0.273299        -2.277463
 H        -3.261717         0.531523        -3.560037
 H        -2.502522        -0.324492         0.542893
 H        -3.717879        -1.313669        -0.427403
 H        -1.493454        -2.066737        -1.885833
 H        -1.087332         1.761564         0.767735
 H         0.090683         2.182358        -0.437046
 H        -2.616934         1.989927        -1.385654
 H        -1.287726         1.536870        -2.358897
