19
Iteration:  1836
 C        -3.009151        -0.026318        -2.958333
 C        -2.416838        -0.047263        -1.529755
 C        -3.017986        -1.263888        -0.739833
 C        -1.619717        -1.238605        -1.027380
 O        -0.745452        -0.959591         0.069674
 C         0.022920         0.137620         0.090833
 O         1.154093         0.028731         0.442523
 C        -0.666843         1.445384        -0.417328
 C        -2.190564         1.266611        -0.739515
 H        -3.329796        -1.055729        -3.326951
 H        -3.790519         0.650057        -3.261013
 H        -2.235468         0.163916        -3.682827
 H        -3.292152        -1.167143         0.305953
 H        -3.526511        -1.994913        -1.304850
 H        -1.080100        -2.021691        -1.660605
 H        -0.405555         2.354562         0.198025
 H         0.041800         1.739531        -1.465951
 H        -2.769195         1.408960         0.263283
 H        -2.601388         2.123118        -1.239763
