19
Iteration:   612charge 0 multiplicity 1
 C        -3.052192        -0.063881        -2.945409
 C        -2.503815        -0.037998        -1.526022
 C        -3.030877        -0.970705        -0.489302
 C        -1.656483        -1.177718        -1.101948
 O        -0.585820        -1.126593        -0.103414
 C         0.041659         0.043330         0.009140
 O         1.171634         0.009220         0.477974
 C        -0.869068         1.329947        -0.096426
 C        -2.020972         1.301878        -1.089217
 H        -3.592506        -0.993949        -2.956765
 H        -3.677221         0.771918        -3.268515
 H        -2.326826         0.065908        -3.682828
 H        -3.114030        -0.524857         0.549458
 H        -3.970220        -1.586891        -0.652926
 H        -1.477332        -1.908849        -1.786429
 H        -1.010224         1.588933         1.010724
 H         0.064767         2.091938        -0.438369
 H        -2.762113         1.960225        -0.771816
 H        -1.628942         1.893844        -1.971104
