19
Iteration:  3205charge 0 multiplicity 1
 C        -2.858045        -0.121214        -3.073768
 C        -2.414238         0.003073        -1.522058
 C        -3.093993        -0.760137        -0.391365
 C        -1.762512        -1.266034        -0.915982
 O        -0.517789        -1.212236        -0.237396
 C        -0.068262         0.059852         0.134288
 O         1.102382         0.237622         0.070764
 C        -1.105666         1.143752         0.316753
 C        -1.762711         1.311214        -1.136495
 H        -3.094266        -1.214444        -3.114340
 H        -3.781999         0.429417        -3.398157
 H        -1.885367        -0.060524        -3.737345
 H        -3.304293        -0.382668         0.613631
 H        -3.903028        -1.384975        -0.629785
 H        -1.897923        -2.207363        -1.395725
 H        -1.928323         0.844862         1.020607
 H        -0.548602         2.005032         0.550593
 H        -2.519226         2.172309        -1.097840
 H        -0.925911         1.538126        -1.941729
