19
Iteration:  1362
 C        -3.002211         0.226954        -2.865833
 C        -2.511362        -0.079824        -1.463766
 C        -3.031995        -1.346386        -0.740988
 C        -1.573289        -1.203094        -1.157561
 O        -0.816204        -1.040413         0.028760
 C         0.113809         0.148622         0.037795
 O         1.032599         0.308327         0.766737
 C        -0.535518         1.133521        -0.889497
 C        -2.094663         1.131442        -0.588996
 H        -3.334070        -0.668588        -3.279291
 H        -3.923591         0.831029        -2.738419
 H        -2.286699         0.840177        -3.386283
 H        -3.211520        -1.110391         0.232161
 H        -3.634878        -2.005824        -1.212532
 H        -1.183406        -1.798745        -1.956357
 H        -0.124415         2.195401        -0.739409
 H        -0.532747         0.821546        -1.970003
 H        -2.189949         1.099332         0.438162
 H        -2.649384         1.967200        -0.918392
