19
Iteration:   856
 C        -3.000256         0.067185        -2.927611
 C        -2.641251        -0.026985        -1.521600
 C        -3.039500        -1.221417        -0.583219
 C        -1.644382        -1.197573        -1.067949
 O        -0.591549        -1.132771        -0.103751
 C         0.021456         0.082305         0.026511
 O         1.060995         0.140101         0.667570
 C        -0.565892         1.323638        -0.521239
 C        -2.099844         1.281027        -0.828383
 H        -3.209774        -1.014961        -3.429626
 H        -4.039420         0.545341        -2.998743
 H        -2.288362         0.577723        -3.586395
 H        -3.173446        -0.868842         0.445583
 H        -3.695462        -1.952120        -0.948210
 H        -1.293696        -1.812446        -1.929545
 H        -0.375630         2.025795         0.306018
 H         0.015821         1.641005        -1.390147
 H        -2.576493         1.401959         0.144858
 H        -2.465729         2.225614        -1.390322
