19
Iteration:  3316
 C        -2.796429        -0.010511        -2.946716
 C        -2.462306         0.028335        -1.499917
 C        -3.153079        -1.124939        -0.646104
 C        -1.714962        -1.164532        -1.007950
 O        -0.710510        -1.134554         0.108628
 C        -0.000323         0.041441         0.003356
 O         1.182633         0.051610         0.130760
 C        -0.799325         1.345815        -0.042068
 C        -2.059956         1.307963        -0.876926
 H        -3.242977        -0.891742        -3.438900
 H        -3.456027         0.786871        -3.273565
 H        -1.804001         0.039248        -3.439245
 H        -3.219813        -0.905142         0.366562
 H        -3.835962        -1.730541        -1.228263
 H        -1.421276        -1.907601        -1.688017
 H        -0.980098         1.759997         0.926994
 H        -0.095227         2.111083        -0.511261
 H        -2.981995         1.625965        -0.331728
 H        -1.908198         1.938828        -1.861124
