19
Iteration:  2869
 C        -2.803347        -0.130891        -2.941870
 C        -2.377533        -0.021451        -1.512419
 C        -3.228496        -0.918194        -0.593491
 C        -1.771950        -1.215813        -0.938984
 O        -0.613851        -1.165478        -0.031803
 C        -0.020498         0.020581         0.132048
 O         1.190222         0.222023         0.024999
 C        -0.949457         1.199476         0.177505
 C        -1.871796         1.314399        -1.083271
 H        -2.773157        -1.188390        -3.256915
 H        -3.887930         0.268351        -2.955813
 H        -2.213458         0.526269        -3.584647
 H        -3.457616        -0.446806         0.414648
 H        -4.057938        -1.454896        -1.074108
 H        -1.652275        -2.149164        -1.522756
 H        -1.634296         1.111621         0.984892
 H        -0.419411         2.193962         0.151956
 H        -2.799180         1.926734        -0.902838
 H        -1.267789         1.916014        -1.873707
