19
Iteration:   350
 C        -3.308020        -0.228027        -2.755810
 C        -2.404758         0.026780        -1.566352
 C        -2.782176        -0.839542        -0.336703
 C        -1.714091        -1.235921        -1.142507
 O        -0.378427        -1.079177        -0.634707
 C        -0.045401         0.049525         0.064103
 O         0.796338        -0.028251         0.932851
 C        -0.699540         1.323725        -0.197985
 C        -1.882673         1.363283        -1.259416
 H        -3.221673        -1.316180        -3.115370
 H        -4.373386         0.165294        -2.511591
 H        -2.995702         0.206598        -3.706800
 H        -2.528194        -0.308509         0.614609
 H        -3.833134        -1.101318        -0.283769
 H        -1.618124        -2.121407        -1.829932
 H        -1.088320         1.541907         0.789144
 H         0.030729         2.023095        -0.341396
 H        -2.666632         1.917256        -0.661415
 H        -1.574713         1.776914        -2.239492
