19
Iteration:  2688charge 0 multiplicity 1
 C        -3.271477        -0.168314        -2.881449
 C        -2.452860        -0.060989        -1.602343
 C        -3.013138        -0.825381        -0.442490
 C        -1.690719        -1.269433        -1.061392
 O        -0.450527        -1.087632        -0.414146
 C         0.009543         0.078288         0.104897
 O         1.086334         0.120480         0.665006
 C        -0.890602         1.288557         0.016552
 C        -1.768496         1.304668        -1.255803
 H        -3.396824        -1.266923        -3.207991
 H        -4.292077         0.336939        -2.847980
 H        -2.583330         0.158996        -3.736876
 H        -2.904514        -0.534682         0.587568
 H        -3.795129        -1.517952        -0.656181
 H        -1.669666        -2.260076        -1.615924
 H        -1.768192         1.161577         0.892917
 H        -0.324214         2.270151         0.298956
 H        -2.630001         1.908513        -1.092285
 H        -1.091077         1.640156        -2.023297
