19
Iteration:    76
 C        -2.854058        -0.073780        -2.996027
 C        -2.357636         0.014193        -1.569407
 C        -3.123638        -0.786495        -0.386026
 C        -1.775963        -1.247464        -0.878258
 O        -0.511849        -1.241102        -0.109248
 C        -0.051998         0.010624         0.129445
 O         1.129707         0.164878         0.081022
 C        -1.069608         1.155066         0.112319
 C        -1.867474         1.371939        -1.176122
 H        -3.284175        -1.093841        -3.115973
 H        -3.669442         0.737598        -3.107141
 H        -2.056048        -0.108329        -3.807499
 H        -3.213223        -0.318863         0.541712
 H        -3.935867        -1.495088        -0.587198
 H        -1.672782        -2.076665        -1.552449
 H        -1.664776         0.979212         0.890704
 H        -0.516982         2.076618         0.238959
 H        -2.725404         2.069165        -0.823818
 H        -1.161820         1.706088        -1.913709
