19
Iteration:  4176charge 0 multiplicity 1
 C        -3.101742        -0.033648        -2.961557
 C        -2.475779        -0.036673        -1.531302
 C        -3.012876        -0.838620        -0.365167
 C        -1.718053        -1.298035        -1.006254
 O        -0.472463        -1.151882        -0.363199
 C         0.023809         0.092276         0.017289
 O         1.165939        -0.001256         0.475641
 C        -1.054195         1.318718         0.093955
 C        -1.809202         1.292821        -1.183389
 H        -3.555773        -0.987271        -3.342354
 H        -3.953743         0.697191        -2.952296
 H        -2.309549         0.155798        -3.660153
 H        -3.110488        -0.284652         0.574610
 H        -3.933019        -1.445286        -0.462914
 H        -1.779736        -2.128582        -1.676682
 H        -1.672156         1.004925         0.955729
 H        -0.580886         2.369265         0.420298
 H        -2.561584         2.140552        -1.337414
 H        -1.075920         1.546191        -1.934411
