19
Iteration:  2318charge 0 multiplicity 1
 C        -2.827022        -0.021900        -3.055895
 C        -2.447729        -0.072674        -1.517994
 C        -3.155224        -1.070826        -0.562816
 C        -1.667504        -1.264694        -0.964172
 O        -0.731796        -1.090351         0.058531
 C        -0.011426         0.163409         0.074363
 O         1.194819         0.135292         0.020340
 C        -0.854724         1.256422         0.198121
 C        -1.980610         1.338876        -1.024903
 H        -3.276070        -1.021732        -3.304440
 H        -3.504051         0.750850        -3.232961
 H        -1.927545        -0.034292        -3.717179
 H        -3.305833        -0.958952         0.491258
 H        -3.816035        -1.862288        -0.911030
 H        -1.489511        -2.128347        -1.698831
 H        -1.483359         1.259259         1.136213
 H        -0.151734         2.224820        -0.035117
 H        -2.781303         1.912668        -0.707711
 H        -1.567843         1.786587        -1.893458
