19
Iteration:  2399
 C        -2.914098        -0.179578        -3.029985
 C        -2.422180        -0.098136        -1.574476
 C        -3.129095        -0.786479        -0.456819
 C        -1.830630        -1.265822        -0.906058
 O        -0.484034        -1.092397        -0.272603
 C        -0.024429         0.078923         0.142327
 O         1.165847         0.291951         0.138354
 C        -1.008271         1.093909         0.315418
 C        -1.817245         1.223398        -1.124933
 H        -3.164017        -1.146292        -3.417140
 H        -3.784858         0.523236        -3.278971
 H        -2.082473         0.320053        -3.500676
 H        -3.221808        -0.067156         0.365689
 H        -4.119492        -1.231872        -0.730878
 H        -1.901583        -2.243701        -1.283400
 H        -1.823563         0.813250         1.123999
 H        -0.693441         2.020626         0.548931
 H        -2.549848         2.073630        -1.027297
 H        -1.031549         1.539311        -1.897455
