19
Iteration:   378charge 0 multiplicity 1
 C        -3.303694        -0.259751        -2.884086
 C        -2.531872         0.030414        -1.521747
 C        -2.925225        -0.851795        -0.331704
 C        -1.631581        -1.127118        -1.139097
 O        -0.312668        -1.174579        -0.513060
 C         0.017825        -0.002475         0.120501
 O         0.938191        -0.061479         0.894647
 C        -0.719210         1.365054        -0.236912
 C        -2.016562         1.432207        -1.207822
 H        -3.292686        -1.273742        -3.201835
 H        -4.269920         0.193728        -2.926551
 H        -2.753684         0.369956        -3.631380
 H        -2.958096        -0.370092         0.601150
 H        -3.845532        -1.360484        -0.582575
 H        -1.653647        -2.039718        -1.805348
 H        -0.820408         1.951304         0.835369
 H         0.187169         1.902310        -0.836198
 H        -2.755140         2.082619        -0.783982
 H        -1.741719         1.859648        -2.205346
