19
Iteration:  2274charge 0 multiplicity 1
 C        -2.937713        -0.057220        -2.998016
 C        -2.441380        -0.040019        -1.556104
 C        -3.118699        -1.066385        -0.532689
 C        -1.723756        -1.255505        -0.999608
 O        -0.611592        -1.100806        -0.053302
 C         0.020545         0.073755         0.040047
 O         1.197018         0.121194         0.282552
 C        -0.876396         1.329625        -0.024100
 C        -1.994162         1.351498        -1.014886
 H        -3.535870        -0.943763        -3.330006
 H        -3.563509         0.772160        -3.069596
 H        -2.034076         0.018906        -3.650687
 H        -3.193210        -0.995647         0.529843
 H        -3.816962        -1.788968        -0.971258
 H        -1.522125        -2.221201        -1.542087
 H        -1.344522         1.290458         1.029846
 H        -0.210839         2.335615        -0.131179
 H        -2.889933         1.757884        -0.581580
 H        -1.617984         2.007808        -1.778358
