19
Iteration:   805charge 0 multiplicity 1
 C        -3.000477         0.213291        -2.825314
 C        -2.507286        -0.079694        -1.400414
 C        -3.113048        -1.259173        -0.542240
 C        -1.641730        -1.214531        -1.095714
 O        -0.513738        -1.166030        -0.268360
 C         0.049032         0.094316        -0.076439
 O         0.724063         0.272447         0.893592
 C        -0.463174         1.215246        -0.927429
 C        -1.985336         1.230765        -0.617232
 H        -2.928541        -0.624882        -3.412630
 H        -4.049102         0.413319        -2.859471
 H        -2.436193         1.054869        -3.233152
 H        -3.337864        -1.103837         0.591429
 H        -3.628545        -2.040940        -1.164912
 H        -1.442583        -1.917958        -1.847011
 H         0.051545         2.164771        -0.557358
 H        -0.279788         1.201061        -2.091587
 H        -2.102908         1.266956         0.535607
 H        -2.501079         2.069311        -0.981937
