19
Iteration:  3591charge 0 multiplicity 1
 C        -3.130004         0.004505        -2.893645
 C        -2.409644        -0.018588        -1.496759
 C        -3.081540        -1.092719        -0.490160
 C        -1.705636        -1.255185        -1.075970
 O        -0.524048        -1.227055        -0.216649
 C         0.028372         0.017520        -0.019398
 O         1.054237         0.026177         0.646321
 C        -0.722140         1.412295        -0.224432
 C        -1.951291         1.472874        -1.061864
 H        -3.688532        -0.907254        -3.276152
 H        -3.858067         0.916786        -2.796501
 H        -2.354407         0.201293        -3.689835
 H        -3.016413        -0.670139         0.489389
 H        -3.970092        -1.689222        -0.828094
 H        -1.587392        -2.063103        -1.831033
 H        -0.907594         1.707190         0.790965
 H         0.082744         2.127075        -0.707848
 H        -3.000399         1.868249        -0.598762
 H        -1.739871         1.812394        -2.120921
