19
Iteration:  4900charge 0 multiplicity 1
 C        -2.948275        -0.046430        -3.047176
 C        -2.473629        -0.054154        -1.542391
 C        -3.169237        -0.792266        -0.472966
 C        -1.772241        -1.241712        -0.888564
 O        -0.584705        -1.162050        -0.107133
 C        -0.003953         0.075130         0.098511
 O         1.234879         0.152012         0.107990
 C        -1.033314         1.148626         0.226195
 C        -1.761347         1.273435        -1.134752
 H        -3.405217        -0.975984        -3.268380
 H        -3.620019         0.685852        -3.422848
 H        -2.060179         0.012494        -3.691535
 H        -3.417927        -0.295383         0.480817
 H        -4.012126        -1.394210        -0.855482
 H        -1.622949        -2.088196        -1.514731
 H        -1.632886         0.836452         1.187328
 H        -0.486623         2.070110         0.450391
 H        -2.384247         2.213425        -1.204550
 H        -1.037025         1.331363        -1.894027
