19
Iteration:  3395
 C        -3.004320         0.094070        -2.913448
 C        -2.534012        -0.005680        -1.378282
 C        -3.037365        -1.149103        -0.566724
 C        -1.675909        -1.182912        -1.156622
 O        -0.546823        -1.195952        -0.259685
 C         0.029943         0.137895         0.128441
 O         0.976201         0.031541         0.799621
 C        -0.536343         1.297890        -0.666932
 C        -2.134695         1.354032        -0.758532
 H        -3.025335        -0.916277        -3.383243
 H        -4.044902         0.516495        -3.040394
 H        -2.429983         0.726488        -3.530318
 H        -3.198209        -1.045204         0.549003
 H        -3.722320        -1.897071        -0.928162
 H        -1.408512        -1.803531        -2.054068
 H        -0.111197         2.202246        -0.384356
 H        -0.301117         0.972646        -1.732193
 H        -2.658508         1.572444         0.115813
 H        -2.483265         2.330721        -1.336866
