19
Iteration:  3702
 C        -2.983505        -0.077086        -3.017484
 C        -2.448265        -0.003004        -1.507528
 C        -3.096105        -0.824359        -0.349424
 C        -1.812962        -1.268270        -0.965449
 O        -0.532662        -1.162865        -0.361485
 C        -0.023665         0.090321         0.163033
 O         1.175565         0.154217         0.236438
 C        -1.049712         1.139222         0.201040
 C        -1.690720         1.303255        -1.154264
 H        -3.436912        -1.062401        -3.243093
 H        -3.752514         0.826192        -3.274332
 H        -2.207534         0.058659        -3.794808
 H        -3.359735        -0.424919         0.651427
 H        -3.929653        -1.425934        -0.725541
 H        -2.018666        -2.190683        -1.442703
 H        -1.723265         0.990289         1.062778
 H        -0.544208         2.078957         0.298901
 H        -2.437017         2.148429        -1.020908
 H        -0.834217         1.405660        -1.808020
