19
Iteration:  4565
 C        -2.759814        -0.080350        -2.953833
 C        -2.380757        -0.003110        -1.486946
 C        -3.174236        -0.744259        -0.400892
 C        -1.803433        -1.204957        -0.923962
 O        -0.523832        -1.280264        -0.233299
 C        -0.035134         0.040723         0.041343
 O         1.119847         0.148028         0.108263
 C        -1.062133         1.186267         0.192475
 C        -1.880382         1.345654        -1.149024
 H        -3.639867        -0.668786        -3.125332
 H        -3.109490         0.918671        -3.210981
 H        -1.911864        -0.538454        -3.574697
 H        -3.112364        -0.342401         0.623835
 H        -3.985772        -1.482722        -0.563134
 H        -1.802786        -2.197016        -1.487016
 H        -1.727472         0.783461         1.066335
 H        -0.431599         2.088581         0.537811
 H        -2.716769         2.121460        -1.040474
 H        -1.169243         1.539648        -1.917932
