19
Iteration:  3801
 C        -3.010011         0.023209        -2.970063
 C        -2.613313        -0.021608        -1.481939
 C        -3.014845        -1.086747        -0.416633
 C        -1.657111        -1.121395        -1.087108
 O        -0.591783        -1.110733        -0.271149
 C         0.060102         0.005878         0.021476
 O         1.027655        -0.038228         0.733966
 C        -0.601858         1.333045        -0.452772
 C        -2.056023         1.344540        -0.934680
 H        -3.053040        -0.909631        -3.554985
 H        -4.188596         0.247987        -2.844193
 H        -2.444639         0.723244        -3.612931
 H        -3.139096        -0.552435         0.498105
 H        -3.754397        -1.874699        -0.606815
 H        -1.507046        -1.986529        -1.760415
 H        -0.556037         2.055499         0.419646
 H         0.082038         1.831201        -1.207633
 H        -2.673501         1.634339        -0.006227
 H        -2.247849         2.070213        -1.710547
