19
Iteration:  2553
 C        -3.446471        -0.151922        -2.618775
 C        -2.413485        -0.049150        -1.560348
 C        -2.746844        -0.885554        -0.320056
 C        -1.557968        -1.255460        -1.134110
 O        -0.192402        -0.965751        -0.732939
 C        -0.066161         0.087618         0.093782
 O         0.476706        -0.120884         1.146979
 C        -0.580826         1.355141        -0.346209
 C        -1.874514         1.364959        -1.436789
 H        -3.506552        -1.182570        -3.017165
 H        -4.455398        -0.107325        -2.068208
 H        -3.290265         0.461621        -3.487657
 H        -2.247454        -0.656451         0.668418
 H        -3.592953        -1.564105        -0.333801
 H        -1.606071        -2.130836        -1.835890
 H        -0.846159         1.922300         0.713317
 H         0.158011         1.962513        -0.852680
 H        -2.647212         1.941159        -1.077635
 H        -1.506349         1.738076        -2.311089
