19
Iteration:  2785charge 0 multiplicity 1
 C        -2.600646        -0.131805        -3.010746
 C        -2.324157        -0.021212        -1.504137
 C        -3.267188        -0.993101        -0.592964
 C        -1.810795        -1.316678        -0.821214
 O        -0.639206        -1.186475         0.060889
 C        -0.057211         0.045184         0.071157
 O         1.093334         0.221540        -0.229084
 C        -0.945583         1.266797         0.250090
 C        -1.946565         1.454781        -0.948932
 H        -3.289092        -0.937336        -3.409470
 H        -3.150405         0.727680        -3.398453
 H        -1.693120        -0.391206        -3.528433
 H        -3.605421        -0.681251         0.411357
 H        -3.773267        -1.759784        -1.050330
 H        -1.550618        -1.989907        -1.730983
 H        -1.457638         1.314572         1.253622
 H        -0.289823         2.207543         0.376244
 H        -2.911129         1.943252        -0.706790
 H        -1.347364         1.945451        -1.701982
