19
Iteration:  1437charge 0 multiplicity 1
 C        -2.791613        -0.068260        -3.048557
 C        -2.510856        -0.046398        -1.542729
 C        -3.109834        -1.115926        -0.520868
 C        -1.684797        -1.183847        -1.036680
 O        -0.541004        -1.128563        -0.153111
 C         0.018738         0.107086         0.064998
 O         1.115812         0.099695         0.492638
 C        -0.752294         1.389530        -0.377731
 C        -2.236149         1.293546        -0.710637
 H        -2.824011        -1.155722        -3.391885
 H        -3.826534         0.412300        -3.184783
 H        -1.982362         0.454195        -3.612279
 H        -3.281465        -0.708404         0.423615
 H        -3.783703        -1.859059        -0.706194
 H        -1.445814        -1.952493        -1.771631
 H        -0.456847         2.053325         0.417861
 H        -0.412010         1.842384        -1.248815
 H        -3.023612         1.282614         0.179527
 H        -2.580818         2.169534        -1.316034
