19
Iteration:   569charge 0 multiplicity 1
 C        -3.036680        -0.075443        -2.867366
 C        -2.399187        -0.041118        -1.504602
 C        -3.166847        -0.902626        -0.539415
 C        -1.731365        -1.250473        -0.995417
 O        -0.511125        -1.147389        -0.207382
 C        -0.009275         0.111840         0.064478
 O         1.179381         0.108833         0.309028
 C        -1.013755         1.281688         0.109041
 C        -1.764454         1.238735        -1.166009
 H        -3.664257        -0.984580        -2.946323
 H        -3.820007         0.724092        -2.899339
 H        -2.441309         0.233134        -3.685840
 H        -3.283241        -0.604042         0.524581
 H        -3.958197        -1.601634        -0.965975
 H        -1.691984        -2.073200        -1.590261
 H        -1.628824         1.136484         1.040362
 H        -0.559220         2.477448         0.163443
 H        -2.388587         2.142010        -1.323418
 H        -1.012351         1.399204        -2.003943
