19
Iteration:  2461
 C        -3.250258        -0.120563        -2.901713
 C        -2.456158        -0.032597        -1.636442
 C        -2.907627        -0.991775        -0.367880
 C        -1.694655        -1.187486        -1.132809
 O        -0.482102        -1.116537        -0.371002
 C         0.012435         0.094502         0.149089
 O         1.065653         0.117803         0.744258
 C        -0.834749         1.325134        -0.093888
 C        -1.908488         1.269019        -1.264414
 H        -3.944815        -1.000708        -2.892437
 H        -3.886636         0.712415        -3.000577
 H        -2.630126        -0.287907        -3.831150
 H        -2.773802        -0.703780         0.669653
 H        -3.807208        -1.532976        -0.618523
 H        -1.580677        -2.020898        -1.755303
 H        -1.346299         1.379289         0.885466
 H        -0.008817         2.132730        -0.101007
 H        -2.705822         1.964097        -1.065590
 H        -1.397133         1.650430        -2.132646
