19
Iteration:    56
 C        -2.895888        -0.193960        -3.016072
 C        -2.424398        -0.077192        -1.560295
 C        -3.156084        -0.665893        -0.385706
 C        -1.806013        -1.259392        -0.896279
 O        -0.531108        -1.216986        -0.308970
 C        -0.007498         0.037029        -0.000489
 O         1.138533         0.212498         0.232546
 C        -0.994045         1.210773         0.259701
 C        -1.812762         1.312612        -1.123834
 H        -3.111727        -1.249022        -3.330361
 H        -3.769869         0.448446        -3.183757
 H        -2.052412         0.168533        -3.642637
 H        -3.217427        -0.114649         0.494093
 H        -3.949030        -1.391953        -0.612343
 H        -1.906366        -2.274623        -1.269576
 H        -1.638179         1.026242         1.085468
 H        -0.403695         2.026009         0.435175
 H        -2.678400         2.057397        -1.068387
 H        -1.051717         1.595365        -1.868813
