19
Iteration:   523
 C        -2.999320        -0.121863        -3.014881
 C        -2.480732        -0.049473        -1.581751
 C        -3.054515        -0.679192        -0.287715
 C        -1.823969        -1.228636        -0.925531
 O        -0.485317        -1.258497        -0.412058
 C         0.013681         0.025395         0.052590
 O         1.139030         0.275552         0.397886
 C        -1.027594         1.099786         0.155272
 C        -1.779670         1.266017        -1.183663
 H        -3.092707        -1.141239        -3.311962
 H        -4.030369         0.253258        -3.209501
 H        -2.364233         0.493704        -3.589964
 H        -2.981678        -0.171587         0.689364
 H        -3.935178        -1.401238        -0.395653
 H        -1.887933        -2.096505        -1.636099
 H        -1.778988         0.980645         1.067064
 H        -0.347071         2.118363         0.512797
 H        -2.436432         2.079188        -1.345124
 H        -0.998476         1.454176        -1.983009
