19
Iteration:  4115
 C        -2.998003        -0.062931        -2.977124
 C        -2.437931        -0.012997        -1.543107
 C        -3.021668        -0.789798        -0.360597
 C        -1.789704        -1.234549        -0.986110
 O        -0.557939        -1.148700        -0.223267
 C        -0.006606         0.029051         0.049866
 O         1.185424         0.124788         0.238280
 C        -1.061362         1.118000         0.193834
 C        -1.778792         1.334132        -1.187443
 H        -3.130481        -1.113834        -3.258571
 H        -3.974316         0.400535        -3.012347
 H        -2.409863         0.499398        -3.733288
 H        -3.067356        -0.272978         0.562757
 H        -3.927024        -1.268375        -0.673412
 H        -1.645653        -2.076997        -1.692593
 H        -1.763696         0.644111         0.904721
 H        -0.715868         1.939473         0.622695
 H        -2.499604         2.066225        -1.156747
 H        -0.994611         1.580766        -1.930643
