19
Iteration:    38
 C        -2.911114        -0.214209        -2.968283
 C        -2.487424        -0.044366        -1.533740
 C        -3.225498        -0.718893        -0.380558
 C        -1.887538        -1.248956        -0.942222
 O        -0.525297        -1.044046        -0.427043
 C         0.064242         0.108883         0.153432
 O         1.241140         0.167104         0.338415
 C        -0.999098         1.129251         0.134244
 C        -1.755669         1.177647        -1.151231
 H        -3.108657        -1.269245        -3.148314
 H        -3.845104         0.213673        -3.256380
 H        -2.220450         0.272629        -3.612473
 H        -3.099740        -0.151779         0.569316
 H        -4.192161        -1.224436        -0.559336
 H        -1.917336        -2.160900        -1.561666
 H        -1.737765         0.980510         1.088636
 H        -0.555298         2.117233         0.395190
 H        -2.408072         1.979665        -1.111449
 H        -1.159102         1.590604        -1.983427
