19
Iteration:   641
 C        -2.988767        -0.081690        -2.951335
 C        -2.474500        -0.036375        -1.536439
 C        -3.158342        -0.975253        -0.414258
 C        -1.774850        -1.278744        -1.032356
 O        -0.495105        -1.170215        -0.351183
 C         0.029939         0.048612         0.060686
 O         1.109576         0.067621         0.613533
 C        -0.713518         1.437700        -0.225535
 C        -1.987919         1.333702        -1.001819
 H        -3.341557        -1.101471        -3.119051
 H        -3.992115         0.447439        -3.071526
 H        -2.222941         0.350313        -3.798832
 H        -3.226915        -0.552314         0.622324
 H        -3.954243        -1.682759        -0.828383
 H        -1.829864        -2.239551        -1.681512
 H        -0.878753         1.812221         0.780178
 H        -0.001727         1.991684        -0.599511
 H        -2.781155         1.783922        -0.285145
 H        -2.003756         2.038873        -1.851901
