19
Iteration:  1677
 C        -3.242575         0.222740        -2.795031
 C        -2.560888        -0.100469        -1.452339
 C        -2.914810        -1.306332        -0.693262
 C        -1.489611        -1.191763        -1.183175
 O        -0.623419        -1.126055        -0.079720
 C        -0.038296         0.092590         0.079034
 O         0.835083         0.320679         0.943071
 C        -0.422447         1.204485        -0.936115
 C        -1.996511         1.204234        -0.759990
 H        -3.612759        -0.678121        -3.272377
 H        -3.985990         1.007123        -2.585167
 H        -2.501964         0.706169        -3.391614
 H        -3.105146        -1.506614         0.408040
 H        -3.462604        -2.163703        -1.236769
 H        -1.177272        -1.907840        -1.978697
 H        -0.092023         2.118552        -0.366274
 H        -0.153791         0.968632        -2.151985
 H        -2.125784         1.429662         0.278178
 H        -2.421829         1.999222        -1.452435
