19
Iteration:  4285
 C        -3.351291        -0.024920        -2.737336
 C        -2.482575         0.040769        -1.504743
 C        -2.829721        -0.909202        -0.347723
 C        -1.675609        -1.254695        -1.189314
 O        -0.308180        -1.278626        -0.654276
 C        -0.030636        -0.014525         0.095724
 O         0.768893         0.065453         0.988977
 C        -0.640617         1.346531        -0.280377
 C        -1.891857         1.390692        -1.242525
 H        -3.412335        -1.102374        -3.183652
 H        -4.463383         0.173183        -2.525563
 H        -2.970538         0.581051        -3.570727
 H        -2.660916        -0.527655         0.654690
 H        -3.822901        -1.334638        -0.384638
 H        -1.635676        -2.100699        -1.907436
 H        -1.020971         1.683540         0.698516
 H         0.361491         1.907517        -0.482642
 H        -2.649922         2.016799        -0.851673
 H        -1.491141         1.797182        -2.174670
