19
Iteration:  2413charge 0 multiplicity 1
 C        -2.930042        -0.125550        -2.953110
 C        -2.418987        -0.099518        -1.568221
 C        -3.167523        -0.800029        -0.408644
 C        -1.742131        -1.282611        -0.910424
 O        -0.501739        -1.117080        -0.370672
 C        -0.042537         0.100543         0.131392
 O         1.176101         0.228670         0.251505
 C        -1.139416         1.193310         0.192836
 C        -1.713638         1.256564        -1.148521
 H        -3.331069        -1.145094        -3.189627
 H        -3.815805         0.595882        -3.000857
 H        -2.176240         0.028411        -3.723636
 H        -3.336485        -0.354768         0.573075
 H        -3.863229        -1.638559        -0.592347
 H        -1.698130        -2.288423        -1.448374
 H        -1.817956         0.934373         0.939285
 H        -0.559363         2.062014         0.472629
 H        -2.603695         2.028908        -1.058449
 H        -0.953189         1.671501        -1.948831
