19
Iteration:  3202charge 0 multiplicity 1
 C        -2.868644        -0.120811        -3.105062
 C        -2.444578         0.003331        -1.512983
 C        -3.081712        -0.756223        -0.390396
 C        -1.757358        -1.263517        -0.911249
 O        -0.526819        -1.191698        -0.249903
 C        -0.075521         0.069678         0.119717
 O         1.110060         0.243073         0.106626
 C        -1.088193         1.141415         0.298654
 C        -1.740711         1.282442        -1.123356
 H        -3.195253        -1.146105        -3.166568
 H        -3.755737         0.358394        -3.368512
 H        -1.963626        -0.154349        -3.732730
 H        -3.186055        -0.353447         0.645828
 H        -3.936441        -1.461928        -0.690280
 H        -1.925325        -2.267298        -1.467403
 H        -1.897117         0.885963         0.994082
 H        -0.491770         1.982855         0.631950
 H        -2.538273         2.206342        -1.031259
 H        -0.981636         1.445879        -1.886387
