19
Iteration:  2756charge 0 multiplicity 1
 C        -2.705218        -0.089502        -2.983252
 C        -2.367062        -0.122449        -1.544006
 C        -3.229410        -0.849068        -0.557527
 C        -1.753303        -1.288707        -0.933912
 O        -0.673616        -1.077773         0.025068
 C         0.018588         0.099367         0.019227
 O         1.235933         0.164826        -0.043592
 C        -1.032385         1.241473         0.204775
 C        -1.995601         1.256285        -0.976714
 H        -3.083397        -1.066180        -3.365715
 H        -3.488399         0.641790        -3.246558
 H        -1.823803         0.160044        -3.702282
 H        -3.380603        -0.393967         0.472736
 H        -4.021269        -1.614475        -0.752111
 H        -1.513037        -2.163857        -1.608392
 H        -1.421088         0.900902         1.283472
 H        -0.486015         2.204755         0.208869
 H        -2.909701         1.842747        -0.867513
 H        -1.320340         1.716078        -1.725565
