19
Iteration:  1850charge 0 multiplicity 1
 C        -2.872965        -0.020836        -2.953254
 C        -2.526689        -0.056158        -1.440869
 C        -3.081485        -1.246039        -0.753876
 C        -1.558307        -1.252903        -1.082380
 O        -0.793719        -0.967001         0.083841
 C         0.018845         0.170544         0.057868
 O         1.176512         0.070002         0.465000
 C        -0.661890         1.373329        -0.551365
 C        -2.173782         1.278602        -0.673879
 H        -2.999230        -1.139857        -3.283670
 H        -3.927441         0.451149        -2.962613
 H        -2.096256         0.494410        -3.526557
 H        -3.293465        -1.279129         0.394889
 H        -3.845087        -1.834026        -1.357419
 H        -1.110775        -1.913191        -1.840196
 H        -0.386530         2.190393         0.163112
 H        -0.131238         1.623307        -1.540237
 H        -2.651306         1.202490         0.369318
 H        -2.636641         2.189403        -1.262087
