19
Iteration:  4636charge 0 multiplicity 1
 C        -3.192545        -0.033008        -2.848877
 C        -2.427071        -0.029699        -1.547976
 C        -3.032712        -0.910552        -0.463605
 C        -1.752586        -1.237265        -1.036930
 O        -0.512008        -1.157159        -0.303155
 C         0.014005        -0.001208         0.089775
 O         1.120910         0.013458         0.616982
 C        -0.862815         1.319687        -0.077217
 C        -1.822117         1.406233        -1.292603
 H        -3.332166        -1.090316        -3.168169
 H        -4.226787         0.317259        -2.632204
 H        -2.666947         0.477237        -3.645543
 H        -2.987965        -0.686013         0.624088
 H        -3.834238        -1.591103        -0.759465
 H        -1.559360        -2.129699        -1.652148
 H        -1.565528         1.257306         0.820687
 H        -0.128570         2.161608         0.020229
 H        -2.546391         2.182113        -1.150021
 H        -1.202728         1.813215        -2.197829
