19
Iteration:  2840
 C        -2.671098        -0.053917        -3.058518
 C        -2.377213        -0.063132        -1.534331
 C        -3.154104        -0.971317        -0.553876
 C        -1.792135        -1.297296        -0.819900
 O        -0.665493        -1.178320         0.099441
 C        -0.048219         0.098071        -0.005835
 O         1.136265         0.170468        -0.192983
 C        -0.991038         1.283874         0.278155
 C        -1.902556         1.299777        -0.955530
 H        -2.979349        -1.100885        -3.302103
 H        -3.395653         0.739034        -3.255619
 H        -1.822623         0.348874        -3.599172
 H        -3.387175        -0.348783         0.330870
 H        -3.946228        -1.457931        -1.018196
 H        -1.624145        -2.178513        -1.570619
 H        -1.577114         1.064809         1.181276
 H        -0.593031         2.321621         0.411838
 H        -2.941614         1.891292        -1.032534
 H        -1.253201         1.874944        -1.706679
