19
Iteration:  3572charge 0 multiplicity 1
 C        -3.129441         0.071446        -2.929668
 C        -2.621218        -0.028794        -1.533288
 C        -2.950546        -0.953740        -0.439606
 C        -1.661796        -1.204843        -1.126615
 O        -0.523739        -1.141897        -0.300553
 C         0.005250         0.004503         0.160412
 O         1.094519        -0.001861         0.742757
 C        -0.665604         1.264781        -0.354020
 C        -2.051234         1.305185        -1.058453
 H        -3.504454        -0.890043        -3.166127
 H        -3.981137         0.765235        -2.998498
 H        -2.359109         0.256826        -3.592146
 H        -2.883851        -0.616687         0.622333
 H        -3.728388        -1.675548        -0.782875
 H        -1.433439        -2.015135        -1.771799
 H        -0.837895         2.012926         0.510722
 H         0.069769         1.775135        -0.939652
 H        -2.870456         1.759246        -0.466869
 H        -1.931511         2.003702        -1.956281
