19
Iteration:  4573charge 0 multiplicity 1
 C        -2.830899        -0.072577        -2.909268
 C        -2.377747         0.001922        -1.492651
 C        -3.136300        -0.765430        -0.424994
 C        -1.807827        -1.243974        -0.875700
 O        -0.486640        -1.195540        -0.242217
 C        -0.077292         0.011259         0.031685
 O         1.158958         0.086781         0.146548
 C        -1.073001         1.204735         0.136445
 C        -1.838599         1.336921        -1.126877
 H        -3.683919        -0.704567        -3.148209
 H        -2.928721         0.962544        -3.290140
 H        -1.887204        -0.342151        -3.518414
 H        -3.347054        -0.475390         0.614659
 H        -3.987033        -1.398749        -0.700436
 H        -1.785637        -2.182364        -1.479172
 H        -1.869353         0.943253         0.778044
 H        -0.626334         2.055484         0.515876
 H        -2.768078         1.969705        -1.099331
 H        -1.389617         1.821716        -2.062710
