19
Iteration:   479charge 0 multiplicity 1
 C        -3.123199        -0.188843        -2.954555
 C        -2.499277        -0.021670        -1.573567
 C        -3.074694        -0.967489        -0.446807
 C        -1.760936        -1.230069        -1.098719
 O        -0.599627        -1.066332        -0.271990
 C         0.082201         0.105241         0.056092
 O         1.211029         0.014540         0.538338
 C        -0.804195         1.353867         0.061428
 C        -1.890955         1.356764        -1.169612
 H        -3.561251        -1.178975        -3.114284
 H        -4.013269         0.498850        -3.069819
 H        -2.352458         0.030644        -3.687432
 H        -3.132609        -0.523517         0.551226
 H        -3.912404        -1.588777        -0.789749
 H        -1.627950        -2.264674        -1.612607
 H        -1.300914         1.338277         1.154042
 H        -0.103314         2.390969         0.021244
 H        -2.729257         2.015431        -0.956701
 H        -1.413960         1.802207        -2.098604
