19
Iteration:  3918
 C        -3.139117         0.265251        -2.790584
 C        -2.498706         0.011565        -1.378057
 C        -3.057882        -1.276009        -0.657105
 C        -1.637709        -1.196194        -1.084684
 O        -0.545217        -1.286860        -0.189120
 C         0.069864         0.027716        -0.030580
 O         0.749465         0.252633         0.930655
 C        -0.398543         1.267655        -0.966839
 C        -1.992368         1.293388        -0.680236
 H        -3.399021        -0.746355        -3.144070
 H        -4.066992         0.784696        -2.682765
 H        -2.444958         0.649728        -3.579105
 H        -3.169903        -1.211026         0.464606
 H        -3.685382        -2.051235        -1.191222
 H        -1.329288        -1.692537        -1.992797
 H         0.379969         2.021230        -0.827092
 H        -0.369418         1.027347        -2.014585
 H        -2.214555         1.361270         0.419835
 H        -2.349108         2.270437        -1.088981
