19
Iteration:  4158charge 0 multiplicity 1
 C        -3.046341        -0.080466        -2.877680
 C        -2.380888        -0.054708        -1.567930
 C        -3.187192        -0.791265        -0.444455
 C        -1.816807        -1.280012        -0.958828
 O        -0.504413        -1.052917        -0.441679
 C        -0.039237         0.077961         0.136098
 O         1.176392         0.139026         0.369404
 C        -0.960706         1.153391         0.193358
 C        -1.693511         1.230119        -1.206029
 H        -3.308470        -1.088608        -3.196302
 H        -3.938981         0.503530        -2.812451
 H        -2.495949         0.447892        -3.659649
 H        -3.205015        -0.468681         0.582819
 H        -3.995166        -1.447953        -0.773244
 H        -1.863054        -2.334133        -1.356169
 H        -1.678423         1.048137         1.053496
 H        -0.393417         1.967887         0.353380
 H        -2.554647         1.982930        -1.131897
 H        -1.036799         1.541012        -2.057279
