19
Iteration:  1467
 C        -2.887952        -0.072494        -2.923122
 C        -2.498401        -0.098339        -1.465326
 C        -3.184739        -1.121887        -0.637304
 C        -1.696434        -1.241862        -1.077548
 O        -0.543138        -1.096491        -0.139980
 C        -0.007960         0.141435         0.052990
 O         1.171283         0.171573         0.504962
 C        -0.718088         1.377340        -0.294498
 C        -2.133938         1.241979        -0.841888
 H        -3.322310        -1.027247        -3.314552
 H        -3.569120         0.753780        -3.055975
 H        -2.056131         0.054239        -3.564044
 H        -3.432441        -0.888696         0.405065
 H        -4.003266        -1.721325        -1.102043
 H        -1.324345        -1.923916        -1.849892
 H        -0.664743         1.851032         0.607509
 H        -0.272894         2.090211        -0.923931
 H        -2.862715         1.442335        -0.027639
 H        -2.232452         2.040408        -1.616494
