19
Iteration:  3228charge 0 multiplicity 1
 C        -2.715431        -0.112330        -2.945417
 C        -2.275417        -0.055893        -1.455208
 C        -3.187177        -0.776372        -0.544283
 C        -1.777212        -1.260588        -0.861361
 O        -0.596768        -1.238029        -0.081821
 C        -0.061964         0.047834         0.000062
 O         1.130165         0.245933        -0.063389
 C        -1.135436         1.157563         0.244205
 C        -1.831620         1.326320        -1.055753
 H        -2.909021        -1.173831        -3.362210
 H        -3.742251         0.328825        -2.812923
 H        -1.953196         0.420641        -3.645756
 H        -3.336643        -0.265332         0.391521
 H        -4.052878        -1.287017        -0.806445
 H        -1.780612        -2.029200        -1.540511
 H        -1.899276         0.796227         0.962912
 H        -0.527605         2.004792         0.556882
 H        -2.682264         2.040259        -0.967086
 H        -1.059758         1.705873        -1.899447
