19
Iteration:  1427charge 0 multiplicity 1
 C        -2.775175        -0.039429        -3.029470
 C        -2.538330        -0.080495        -1.462087
 C        -3.142726        -1.123237        -0.497317
 C        -1.607628        -1.175069        -1.048956
 O        -0.584752        -1.090003        -0.146964
 C        -0.011360         0.118988         0.003657
 O         1.101517         0.116817         0.521506
 C        -0.728541         1.351322        -0.444145
 C        -2.229779         1.209495        -0.713656
 H        -2.732614        -1.039892        -3.545400
 H        -3.819167         0.352321        -3.320537
 H        -2.104734         0.720766        -3.469600
 H        -3.183653        -0.671918         0.429249
 H        -3.899975        -1.677343        -0.832765
 H        -1.355801        -1.752386        -1.907379
 H        -0.623499         2.123223         0.375474
 H        -0.059528         1.579593        -1.265096
 H        -2.792711         1.290709         0.310046
 H        -2.520544         2.090038        -1.304833
