19
Iteration:    30charge 0 multiplicity 1
 C        -2.984647        -0.202465        -2.994738
 C        -2.548318        -0.020292        -1.522247
 C        -3.191720        -0.817954        -0.378579
 C        -1.859322        -1.180249        -0.885688
 O        -0.482495        -1.055806        -0.446068
 C         0.052483         0.096278         0.114085
 O         1.256294         0.112258         0.403444
 C        -1.020543         1.188506         0.142806
 C        -1.736168         1.219404        -1.193433
 H        -2.973951        -1.287835        -3.239607
 H        -4.013138         0.350106        -3.129855
 H        -2.146943         0.082356        -3.748852
 H        -3.268957        -0.107861         0.536762
 H        -4.163631        -1.237004        -0.598661
 H        -1.746803        -2.073556        -1.504143
 H        -1.822401         0.982101         0.830699
 H        -0.524587         2.246757         0.243433
 H        -2.535763         2.080886        -0.962040
 H        -0.941085         1.250690        -1.987110
