19
Iteration:  3363
 C        -2.889666         0.044088        -2.957652
 C        -2.535339        -0.064446        -1.494395
 C        -3.184596        -0.982865        -0.568485
 C        -1.691923        -1.270960        -1.038405
 O        -0.610566        -1.151153        -0.182194
 C         0.076917         0.081931        -0.057282
 O         1.123574         0.079864         0.590379
 C        -0.644036         1.361069        -0.361179
 C        -2.100747         1.230902        -0.779733
 H        -3.059103        -0.945751        -3.441897
 H        -3.935459         0.495114        -3.072878
 H        -2.178820         0.521237        -3.579354
 H        -3.388008        -0.627908         0.503042
 H        -3.842967        -1.728780        -1.020275
 H        -1.582178        -2.027390        -1.891813
 H        -0.668790         1.821035         0.623665
 H        -0.000416         2.067371        -0.914228
 H        -2.734354         1.281695         0.014919
 H        -2.406922         2.069597        -1.509629
