19
Iteration:  4026charge 0 multiplicity 1
 C        -3.007651        -0.044188        -2.940104
 C        -2.526536        -0.005814        -1.542200
 C        -3.020941        -1.026693        -0.534643
 C        -1.695481        -1.256848        -1.089243
 O        -0.603883        -1.126998        -0.147380
 C        -0.011933         0.040453         0.009443
 O         1.131313        -0.058530         0.473672
 C        -0.687573         1.496295        -0.154127
 C        -2.077370         1.355632        -0.937704
 H        -3.592059        -1.018976        -3.007835
 H        -3.642577         0.823927        -3.164562
 H        -2.203330         0.076923        -3.717947
 H        -3.082705        -0.752056         0.560344
 H        -3.661881        -1.838440        -0.960140
 H        -1.505190        -2.180118        -1.628682
 H        -0.911662         1.866321         0.842110
 H         0.008352         2.052341        -0.685232
 H        -2.783266         1.717274        -0.302198
 H        -1.959351         2.096317        -1.741266
