19
Iteration:  2382charge 0 multiplicity 1
 C        -2.812611        -0.141070        -3.083830
 C        -2.437739        -0.064396        -1.575698
 C        -3.237910        -0.728160        -0.436758
 C        -1.789364        -1.246042        -0.889227
 O        -0.542027        -1.259303        -0.174406
 C         0.033540         0.124105         0.035141
 O         1.229168         0.313253         0.066279
 C        -1.132758         1.126744         0.291106
 C        -1.833759         1.228364        -1.032635
 H        -2.861356        -1.243590        -3.290921
 H        -3.790549         0.327295        -3.300489
 H        -2.220149         0.307868        -3.924129
 H        -3.319021        -0.288245         0.540963
 H        -3.918619        -1.567918        -0.561627
 H        -1.758932        -2.238571        -1.501310
 H        -1.683993         0.905176         1.130336
 H        -0.534978         2.130402         0.629159
 H        -2.600319         2.054899        -1.004621
 H        -0.998879         1.744599        -1.545528
