19
Iteration:  3255
 C        -2.726632        -0.061784        -3.121541
 C        -2.447505        -0.071067        -1.536799
 C        -3.165600        -0.964908        -0.582342
 C        -1.791195        -1.248385        -0.872936
 O        -0.690893        -1.138346         0.095166
 C        -0.003256         0.065404         0.086958
 O         1.208141         0.167875        -0.156496
 C        -0.975193         1.236859         0.275574
 C        -1.889583         1.322054        -0.964040
 H        -2.749639        -1.031105        -3.595666
 H        -3.659886         0.525579        -3.292371
 H        -1.981799         0.595893        -3.511829
 H        -3.456735        -0.526098         0.408264
 H        -4.025230        -1.677415        -0.792929
 H        -1.646589        -2.200786        -1.514777
 H        -1.595811         1.124272         1.176578
 H        -0.322650         2.134947         0.275240
 H        -2.690401         2.010417        -0.740517
 H        -1.383164         1.818528        -1.706231
