19
Iteration:  2261
 C        -2.954315        -0.061975        -2.996070
 C        -2.503995        -0.059315        -1.483163
 C        -3.058429        -1.007503        -0.477316
 C        -1.701949        -1.276778        -1.066561
 O        -0.598941        -1.155231        -0.160413
 C         0.003726         0.112452         0.035951
 O         1.171612         0.149879         0.369458
 C        -0.856364         1.309606         0.036020
 C        -2.005138         1.267776        -1.039905
 H        -3.265533        -1.062658        -3.227130
 H        -3.715964         0.616746        -3.393617
 H        -2.089658         0.174096        -3.636933
 H        -3.158140        -0.465415         0.498266
 H        -3.994488        -1.459510        -0.806795
 H        -1.468975        -1.934083        -1.886302
 H        -1.227736         1.603916         1.027088
 H        -0.067537         2.193179        -0.224592
 H        -2.751479         1.904372        -0.684780
 H        -1.728633         1.684710        -1.963352
