19
Iteration:  2410charge 0 multiplicity 1
 C        -2.928676        -0.142972        -2.942070
 C        -2.431685        -0.103532        -1.588651
 C        -3.166124        -0.799067        -0.418480
 C        -1.750169        -1.283965        -0.911036
 O        -0.504569        -1.109970        -0.362186
 C        -0.037788         0.113572         0.153098
 O         1.168214         0.236864         0.224386
 C        -1.108033         1.171354         0.193812
 C        -1.721893         1.253198        -1.145667
 H        -3.227832        -1.116594        -3.283619
 H        -3.767430         0.622890        -3.025416
 H        -2.173766         0.064411        -3.698708
 H        -3.305555        -0.261051         0.535974
 H        -3.935545        -1.610350        -0.610481
 H        -1.711497        -2.260565        -1.344293
 H        -1.903748         0.901205         1.020343
 H        -0.581472         1.993027         0.509788
 H        -2.531245         2.013864        -1.005940
 H        -0.964962         1.711087        -1.846922
