19
Iteration:  4739
 C        -3.474734        -0.083086        -2.644248
 C        -2.376555        -0.000701        -1.494560
 C        -2.654919        -0.824265        -0.261220
 C        -1.618545        -1.274319        -1.182574
 O        -0.267941        -1.066366        -0.781410
 C        -0.213443        -0.053686         0.150135
 O         0.601301        -0.072004         0.986356
 C        -0.824017         1.374108        -0.154816
 C        -1.626541         1.375997        -1.465555
 H        -4.073342        -0.949084        -2.337777
 H        -4.077759         0.837728        -2.731370
 H        -2.930228        -0.271068        -3.641631
 H        -2.250625        -0.705976         0.754334
 H        -3.541220        -1.453860        -0.228478
 H        -1.701913        -2.106314        -1.812282
 H        -1.388754         1.727058         0.678853
 H         0.059328         1.942258        -0.257398
 H        -2.357806         2.231692        -1.528224
 H        -0.835507         1.376257        -2.392767
