19
Iteration:  2998
 C        -3.539141        -0.178597        -2.622557
 C        -2.444051        -0.044642        -1.582427
 C        -2.682387        -0.903540        -0.310059
 C        -1.608769        -1.191559        -1.256519
 O        -0.223460        -0.974703        -0.773681
 C        -0.129918         0.040146         0.158454
 O         0.589407        -0.043643         1.107923
 C        -0.716207         1.378918        -0.198910
 C        -1.665158         1.276127        -1.418078
 H        -4.060611        -1.098826        -2.424903
 H        -4.272057         0.638942        -2.585140
 H        -3.186799        -0.263568        -3.663386
 H        -2.483491        -0.578020         0.741464
 H        -3.494409        -1.626341        -0.413494
 H        -1.687279        -2.192264        -1.766141
 H        -1.305955         1.767411         0.693489
 H         0.141777         2.102554        -0.267719
 H        -2.379123         2.289185        -1.507202
 H        -0.924408         1.319245        -2.243838
