19
Iteration:  2669charge 0 multiplicity 1
 C        -3.345551        -0.140605        -2.890487
 C        -2.491894        -0.020570        -1.617679
 C        -2.900746        -0.900999        -0.292884
 C        -1.617758        -1.174887        -1.132368
 O        -0.331289        -1.046012        -0.499428
 C         0.014392         0.130665         0.182649
 O         1.036234        -0.006364         0.832966
 C        -1.010684         1.227637        -0.063617
 C        -1.812388         1.281375        -1.382292
 H        -3.906149        -1.074529        -2.889208
 H        -4.102442         0.537394        -2.585552
 H        -2.851549         0.003944        -3.882327
 H        -2.984478        -0.170151         0.577946
 H        -3.724131        -1.581239        -0.461539
 H        -1.581982        -2.131347        -1.772611
 H        -1.467391         1.290256         0.849837
 H        -0.420313         2.153465        -0.049745
 H        -2.466774         2.250980        -1.366072
 H        -1.011988         1.312724        -2.244629
