19
Iteration:  1770charge 0 multiplicity 1
 C        -2.856433        -0.043071        -2.915695
 C        -2.451410        -0.069040        -1.450080
 C        -3.142064        -1.127213        -0.554676
 C        -1.703404        -1.207028        -1.002873
 O        -0.478333        -1.119645        -0.249183
 C        -0.068262         0.120111         0.100984
 O         1.088774         0.133627         0.550942
 C        -0.721027         1.389768        -0.420067
 C        -2.189829         1.262737        -0.849099
 H        -2.990382        -1.081074        -3.330817
 H        -3.673400         0.648846        -3.123893
 H        -2.009329         0.443748        -3.469158
 H        -3.222425        -0.790920         0.397004
 H        -3.946251        -1.748302        -0.834379
 H        -1.495728        -1.947514        -1.812784
 H        -0.660106         1.979455         0.481631
 H        -0.046781         1.623490        -1.341472
 H        -2.946050         1.300437         0.045491
 H        -2.410365         2.019807        -1.584339
