19
Iteration:  3335
 C        -2.833474         0.049147        -3.037673
 C        -2.508632        -0.064553        -1.564178
 C        -3.182523        -1.089294        -0.566255
 C        -1.700805        -1.281729        -0.967192
 O        -0.653957        -1.059652        -0.056761
 C         0.054405         0.092209         0.140089
 O         1.242792        -0.002126         0.280079
 C        -0.740839         1.336562        -0.164249
 C        -2.171584         1.341464        -0.856317
 H        -3.265540        -0.874232        -3.411356
 H        -3.624164         0.755429        -3.165052
 H        -1.945684         0.271692        -3.732534
 H        -3.447146        -0.631650         0.398576
 H        -3.800253        -1.821166        -1.054497
 H        -1.542422        -2.042015        -1.703248
 H        -0.784812         1.894146         0.844977
 H         0.001453         1.995258        -0.562364
 H        -3.129842         1.486958        -0.157306
 H        -2.103036         1.930417        -1.687229
