19
Iteration:   181
 C        -2.930377        -0.056498        -3.014940
 C        -2.493624        -0.022810        -1.515543
 C        -3.103143        -0.857289        -0.452729
 C        -1.753379        -1.267435        -0.993976
 O        -0.536402        -1.209864        -0.186048
 C         0.014794         0.051594         0.028633
 O         1.164451         0.050726         0.403634
 C        -0.805659         1.340771        -0.104200
 C        -2.057741         1.316006        -1.019965
 H        -2.864451        -1.145010        -3.343304
 H        -3.975268         0.205367        -3.219334
 H        -2.157740         0.436067        -3.696143
 H        -2.973751        -0.384458         0.601054
 H        -4.062287        -1.486864        -0.498556
 H        -1.656020        -2.184395        -1.575911
 H        -1.246589         1.442074         0.992467
 H        -0.143962         2.337452        -0.264386
 H        -2.844423         1.876665        -0.493627
 H        -1.795120         1.977121        -1.962718
