19
Iteration:   554
 C        -3.048569        -0.048582        -2.920215
 C        -2.431165        -0.090613        -1.575033
 C        -3.086730        -0.788746        -0.412872
 C        -1.758390        -1.278190        -0.925160
 O        -0.516398        -1.154620        -0.320240
 C        -0.047172         0.088007         0.129743
 O         1.165057         0.178509         0.278256
 C        -1.056067         1.219154         0.192223
 C        -1.715429         1.230277        -1.224174
 H        -3.311368        -0.981417        -3.324074
 H        -3.926896         0.575104        -2.859963
 H        -2.257845         0.229510        -3.614393
 H        -3.190580        -0.278593         0.544482
 H        -3.906637        -1.483127        -0.675466
 H        -1.680375        -2.252436        -1.552144
 H        -1.840912         1.063253         1.019667
 H        -0.460964         2.074409         0.433820
 H        -2.424333         1.996059        -1.393556
 H        -0.875364         1.287865        -1.937067
