19
Iteration:  3849
 C        -3.169281         0.174601        -2.784826
 C        -2.491554         0.046552        -1.427089
 C        -3.053907        -1.140456        -0.620897
 C        -1.625250        -1.185773        -1.122731
 O        -0.518834        -1.190331        -0.227223
 C         0.039871         0.077870        -0.019236
 O         0.802401         0.151094         0.922285
 C        -0.424685         1.214521        -0.849742
 C        -1.984312         1.213565        -0.720728
 H        -3.326257        -0.813351        -3.298866
 H        -4.177004         0.659056        -2.725831
 H        -2.446737         0.664319        -3.493121
 H        -3.293304        -0.972069         0.460870
 H        -3.734788        -1.872813        -1.098516
 H        -1.296111        -1.870748        -1.924632
 H         0.006449         2.113392        -0.499684
 H        -0.207042         1.119186        -1.818877
 H        -2.379045         1.265083         0.257547
 H        -2.402595         2.111528        -1.267816
