19
Iteration:   301
 C        -3.525725         0.007155        -2.696317
 C        -2.496582        -0.078740        -1.525820
 C        -2.879383        -0.919628        -0.295866
 C        -1.626492        -1.271354        -1.220384
 O        -0.329556        -0.992233        -0.643231
 C         0.004388         0.120770         0.158937
 O         0.885068         0.050360         0.980260
 C        -0.894076         1.242490        -0.144079
 C        -1.586402         1.193584        -1.492926
 H        -4.202891        -0.824995        -2.878805
 H        -4.095435         0.885650        -2.536586
 H        -2.946384        -0.005518        -3.651822
 H        -2.690629        -0.821538         0.808447
 H        -3.762200        -1.623647        -0.544332
 H        -1.428237        -2.133673        -1.766090
 H        -1.576312         1.187021         0.648264
 H        -0.325063         2.236409         0.083683
 H        -2.193753         2.092353        -1.491796
 H        -0.835121         1.136333        -2.314618
