19
Iteration:  2924
 C        -3.122502        -0.100666        -2.904330
 C        -2.465554        -0.045733        -1.516405
 C        -3.071486        -0.808277        -0.424537
 C        -1.703379        -1.238765        -1.072823
 O        -0.404024        -1.180460        -0.492330
 C         0.006462         0.033236         0.168658
 O         1.112048         0.167228         0.648735
 C        -0.950732         1.260679         0.012272
 C        -1.869988         1.266030        -1.242917
 H        -3.560213        -1.092225        -3.125860
 H        -4.065779         0.540201        -2.836537
 H        -2.473385         0.109226        -3.729681
 H        -3.031152        -0.466743         0.641364
 H        -3.854204        -1.533329        -0.507025
 H        -1.756790        -2.245893        -1.604628
 H        -1.561064         1.374802         0.882399
 H        -0.302157         2.197608        -0.124581
 H        -2.604356         1.942912        -1.133224
 H        -1.207438         1.573896        -2.055415
