19
Iteration:  3373
 C        -2.943500         0.025126        -2.909597
 C        -2.473043        -0.016124        -1.469294
 C        -3.128716        -1.064249        -0.591658
 C        -1.755121        -1.221574        -1.101187
 O        -0.558995        -1.130699        -0.232075
 C         0.025990         0.044660         0.035457
 O         1.052924         0.104940         0.635338
 C        -0.560351         1.307545        -0.454581
 C        -2.146100         1.259317        -0.758628
 H        -2.880673        -0.995931        -3.345826
 H        -3.926311         0.515871        -3.126393
 H        -2.236548         0.625618        -3.421059
 H        -3.320537        -0.716182         0.444756
 H        -3.958478        -1.651551        -0.957216
 H        -1.533108        -2.100220        -1.728027
 H        -0.472588         1.885973         0.430130
 H         0.071792         1.742417        -1.269170
 H        -2.684392         1.491618         0.093437
 H        -2.416848         2.180670        -1.422038
