19
Iteration:  2395charge 0 multiplicity 1
 C        -2.899125        -0.156090        -3.077166
 C        -2.426298        -0.083010        -1.576233
 C        -3.149883        -0.752121        -0.449986
 C        -1.827052        -1.271975        -0.891467
 O        -0.495771        -1.121349        -0.242828
 C        -0.007730         0.054153         0.108977
 O         1.192331         0.313188         0.119444
 C        -1.045368         1.099099         0.349573
 C        -1.827234         1.223814        -1.102485
 H        -3.123454        -1.206296        -3.406509
 H        -3.803147         0.356799        -3.240804
 H        -2.020116         0.289287        -3.604398
 H        -3.247326        -0.119184         0.419509
 H        -4.051454        -1.224286        -0.713489
 H        -1.849886        -2.243453        -1.421090
 H        -1.734189         0.755645         1.169708
 H        -0.594586         2.200401         0.561432
 H        -2.568099         1.953461        -1.090436
 H        -1.176626         1.393322        -1.892824
