19
Iteration:   413
 C        -3.217869        -0.016327        -2.853735
 C        -2.505816        -0.126438        -1.539143
 C        -2.999610        -1.015456        -0.393249
 C        -1.668271        -1.257650        -1.121856
 O        -0.513555        -1.090774        -0.365309
 C         0.024089         0.097047         0.059054
 O         0.978344         0.076911         0.782595
 C        -0.643946         1.385034        -0.252618
 C        -1.904683         1.224176        -1.166623
 H        -3.785023        -0.858907        -3.224963
 H        -3.979038         0.804452        -2.671619
 H        -2.436876         0.152101        -3.628966
 H        -3.039475        -0.664529         0.628864
 H        -3.892585        -1.413573        -0.733324
 H        -1.632402        -2.196421        -1.843933
 H        -0.818347         1.858330         0.767744
 H         0.239134         2.082630        -0.781910
 H        -2.736295         1.773006        -0.686270
 H        -1.585654         1.780416        -2.126972
