19
Iteration:  4348charge 0 multiplicity 1
 C        -3.531030        -0.090314        -2.727686
 C        -2.556977         0.038517        -1.530104
 C        -2.803951        -0.926764        -0.302780
 C        -1.676303        -1.133880        -1.190695
 O        -0.298785        -1.016385        -0.784574
 C        -0.033779        -0.020679         0.147450
 O         0.847212         0.008210         1.042144
 C        -0.807444         1.220254        -0.079469
 C        -1.603678         1.259035        -1.387434
 H        -3.941319        -1.115390        -2.766022
 H        -4.327687         0.695106        -2.703759
 H        -2.985257         0.066753        -3.691120
 H        -2.663442        -0.455173         0.678198
 H        -3.779139        -1.378528        -0.470865
 H        -1.751948        -1.958430        -1.901362
 H        -1.293936         1.412822         0.816774
 H        -0.077386         2.060300        -0.164264
 H        -2.176249         2.193583        -1.623598
 H        -0.841290         1.041436        -2.292987
