19
Iteration:  1553
 C        -3.078816        -0.116718        -2.949112
 C        -2.547605        -0.024620        -1.495272
 C        -3.137508        -1.078833        -0.584629
 C        -1.641560        -1.262519        -1.107613
 O        -0.500330        -1.137599        -0.257101
 C         0.077853         0.099763         0.073109
 O         1.048897         0.121809         0.742449
 C        -0.630641         1.448823        -0.369953
 C        -2.082837         1.308367        -0.910724
 H        -2.800986        -1.130064        -3.340554
 H        -4.144499        -0.081363        -3.008856
 H        -2.597038         0.568660        -3.651299
 H        -3.127799        -0.897531         0.527911
 H        -3.879919        -1.812349        -0.846688
 H        -1.455005        -1.952914        -1.926391
 H        -0.551367         2.064646         0.599676
 H         0.134720         1.898139        -1.183851
 H        -2.761281         1.535332        -0.135216
 H        -2.323587         2.156043        -1.510575
