19
Iteration:  2305
 C        -2.887026        -0.049056        -2.979727
 C        -2.450537        -0.048290        -1.526032
 C        -3.157642        -1.061553        -0.649243
 C        -1.701938        -1.234836        -0.977293
 O        -0.654169        -1.069693         0.106376
 C         0.032206         0.090301         0.041839
 O         1.259489         0.094858         0.094975
 C        -0.976723         1.330765         0.051701
 C        -1.984838         1.264984        -0.986395
 H        -3.565775        -0.834940        -3.293748
 H        -3.425600         0.871803        -3.245712
 H        -1.964963         0.036166        -3.582101
 H        -3.303092        -0.936227         0.435505
 H        -3.808421        -1.681690        -1.301602
 H        -1.328938        -2.131224        -1.491995
 H        -1.227862         1.298338         1.085959
 H        -0.429371         2.404580         0.049861
 H        -2.808234         1.831929        -0.667454
 H        -1.527933         1.816260        -1.758317
