19
Iteration:   987charge 0 multiplicity 1
 C        -2.680351        -0.041559        -3.013307
 C        -2.455516        -0.039706        -1.489599
 C        -3.132681        -1.014014        -0.504043
 C        -1.708384        -1.217235        -0.933940
 O        -0.671888        -1.084970        -0.046399
 C         0.008885         0.078809        -0.042162
 O         1.192445         0.098550         0.206181
 C        -0.864187         1.288032        -0.088159
 C        -2.179080         1.236748        -0.892601
 H        -2.716807        -1.158455        -3.339426
 H        -3.624588         0.370652        -3.419666
 H        -1.930897         0.549027        -3.479562
 H        -3.392531        -0.539553         0.438219
 H        -3.901339        -1.714163        -0.872094
 H        -1.548412        -1.989197        -1.659687
 H        -0.870169         1.637514         0.941571
 H        -0.246010         2.037945        -0.548973
 H        -2.895584         1.587278        -0.165116
 H        -2.290915         2.092637        -1.735952
