19
Iteration:  4686charge 0 multiplicity 1
 C        -3.490661        -0.092127        -2.904561
 C        -2.518628        -0.034274        -1.535693
 C        -2.831270        -0.869908        -0.242480
 C        -1.702354        -1.138851        -1.168764
 O        -0.262244        -1.094953        -0.681682
 C        -0.094814        -0.001245         0.260759
 O         0.899633        -0.026419         0.983763
 C        -0.759916         1.263264        -0.126599
 C        -1.705574         1.316408        -1.411305
 H        -3.619871        -1.145290        -3.250513
 H        -4.507747         0.212519        -2.648856
 H        -3.066131         0.506558        -3.726482
 H        -2.807509        -0.267598         0.677880
 H        -3.724810        -1.486965        -0.294931
 H        -1.905089        -2.025802        -1.672679
 H        -1.308664         1.685297         0.684756
 H         0.154566         1.869584        -0.340535
 H        -2.298186         2.302714        -1.289524
 H        -1.093203         1.551272        -2.274410
