19
Iteration:  1400
 C        -2.861410         0.130684        -2.912259
 C        -2.486421        -0.116896        -1.413193
 C        -3.151332        -1.330417        -0.650557
 C        -1.683116        -1.291462        -1.023055
 O        -0.669250        -1.109619        -0.071738
 C         0.065779         0.137318        -0.003553
 O         1.063858         0.198882         0.621305
 C        -0.603285         1.411677        -0.669863
 C        -2.152985         1.265666        -0.678244
 H        -2.700464        -0.755668        -3.604205
 H        -3.910072         0.404987        -2.973700
 H        -2.315328         0.930217        -3.458918
 H        -3.533868        -1.020114         0.405857
 H        -3.825191        -2.144662        -1.188226
 H        -1.339590        -1.995756        -1.839250
 H        -0.213338         2.273188        -0.142870
 H        -0.118274         1.489601        -1.657034
 H        -2.655503         1.344536         0.339912
 H        -2.457291         2.152953        -1.298971
