19
Iteration:  3149charge 0 multiplicity 1
 C        -3.231255        -0.078915        -2.900329
 C        -2.453578        -0.060223        -1.574898
 C        -3.022741        -0.957220        -0.396040
 C        -1.660875        -1.233197        -0.981844
 O        -0.386599        -1.107858        -0.377849
 C         0.013063         0.104208         0.074009
 O         1.032256         0.064241         0.668244
 C        -0.884221         1.266210        -0.078387
 C        -1.865717         1.339057        -1.270674
 H        -3.997179        -0.852275        -3.104284
 H        -3.753610         0.884145        -3.068783
 H        -2.380472        -0.261635        -3.732536
 H        -3.128929        -0.469878         0.566206
 H        -3.700598        -1.739540        -0.816738
 H        -1.703621        -2.200592        -1.606946
 H        -1.384068         1.333339         0.961473
 H        -0.312429         2.151688         0.006787
 H        -2.654432         2.109667        -1.002963
 H        -1.267453         1.767962        -2.157719
