19
Iteration:  2175
 C        -3.467808        -0.096848        -2.762425
 C        -2.466987        -0.069214        -1.591686
 C        -2.836634        -0.902958        -0.397592
 C        -1.609333        -1.274709        -1.171641
 O        -0.295308        -1.017015        -0.604156
 C        -0.084753         0.074062         0.140218
 O         0.919089         0.083256         0.834059
 C        -1.002048         1.312705         0.038940
 C        -1.629396         1.249992        -1.352061
 H        -3.855795        -1.127868        -2.888883
 H        -4.165799         0.637589        -2.504320
 H        -2.862445         0.072516        -3.692481
 H        -2.726213        -0.546081         0.672181
 H        -3.642788        -1.640145        -0.440068
 H        -1.674101        -2.225242        -1.626910
 H        -1.878378         1.273509         0.742053
 H        -0.222698         2.168150         0.162511
 H        -2.151840         2.216585        -1.590261
 H        -0.855159         1.185452        -2.209449
