19
Iteration:  1616charge 0 multiplicity 1
 C        -3.020152         0.113411        -2.823239
 C        -2.478182        -0.061894        -1.415176
 C        -3.025462        -1.194433        -0.519065
 C        -1.630130        -1.264430        -1.139055
 O        -0.487617        -1.126413        -0.305391
 C         0.049029         0.066159        -0.054396
 O         0.727605         0.295913         0.924582
 C        -0.524100         1.216840        -0.784312
 C        -2.071233         1.240468        -0.756752
 H        -3.478545        -0.842222        -3.184062
 H        -3.901232         0.815665        -2.869311
 H        -2.269881         0.577191        -3.598236
 H        -2.939854        -0.978468         0.576338
 H        -3.617798        -2.007141        -0.961393
 H        -1.348229        -1.961241        -1.919606
 H        -0.218276         2.165720        -0.246087
 H        -0.112867         1.386698        -1.727868
 H        -2.337466         1.188414         0.416899
 H        -2.446424         2.138852        -1.325850
