19
Iteration:  3286
 C        -2.722197        -0.059192        -2.917739
 C        -2.424114        -0.016237        -1.461744
 C        -3.104876        -1.062415        -0.663045
 C        -1.699817        -1.272864        -0.940697
 O        -0.775328        -1.036862         0.089890
 C        -0.021737         0.104188        -0.036956
 O         1.197489        -0.002992        -0.046815
 C        -0.922852         1.314738         0.117842
 C        -2.007783         1.363454        -0.913850
 H        -3.015870        -1.055789        -3.391292
 H        -3.421003         0.809519        -3.260846
 H        -1.815209         0.285072        -3.380448
 H        -3.352527        -0.882209         0.418112
 H        -3.840556        -1.664312        -1.295651
 H        -1.431120        -2.153614        -1.623481
 H        -1.377517         1.381664         1.101800
 H        -0.292529         2.278285         0.083096
 H        -2.851699         1.803527        -0.529085
 H        -1.743568         1.959295        -1.869426
