19
Iteration:   902charge 0 multiplicity 1
 C        -2.985984        -0.031126        -3.020227
 C        -2.449077        -0.081849        -1.520511
 C        -3.072935        -1.131711        -0.621402
 C        -1.652076        -1.224668        -1.027583
 O        -0.691155        -1.056004        -0.024676
 C        -0.017894         0.108170         0.102342
 O         1.152428         0.053895         0.346286
 C        -0.698470         1.420362        -0.202303
 C        -2.041511         1.285548        -0.859319
 H        -3.528535        -1.015490        -3.358358
 H        -3.757294         0.770816        -3.170346
 H        -2.063697         0.082387        -3.642792
 H        -3.202161        -0.930783         0.490165
 H        -3.666103        -1.982563        -1.125677
 H        -1.352989        -1.981515        -1.658180
 H        -0.881339         1.984757         0.803023
 H        -0.028413         2.089973        -0.840390
 H        -2.830424         1.506302        -0.055667
 H        -2.277838         1.959495        -1.644443
