19
Iteration:  1686
 C        -3.196543         0.227234        -2.790703
 C        -2.505854        -0.070319        -1.444065
 C        -2.950643        -1.345978        -0.686322
 C        -1.555951        -1.273009        -1.166747
 O        -0.594228        -1.139134        -0.068208
 C         0.039679         0.121416         0.066087
 O         0.838650         0.294453         0.925452
 C        -0.515373         1.230945        -0.875726
 C        -2.012753         1.264849        -0.831221
 H        -3.579834        -0.726319        -3.294565
 H        -4.141841         0.772601        -2.598677
 H        -2.593034         0.807666        -3.480714
 H        -3.056459        -1.279905         0.381106
 H        -3.554039        -2.044890        -1.288324
 H        -1.198266        -1.949630        -1.987858
 H         0.051925         2.086733        -0.540722
 H         0.073507         1.158530        -1.910456
 H        -2.262777         1.256931         0.232683
 H        -2.513438         2.161889        -1.309772
