19
Iteration:  4591charge 0 multiplicity 1
 C        -2.952979        -0.061888        -3.005121
 C        -2.437777        -0.028811        -1.536982
 C        -3.149384        -0.869844        -0.447998
 C        -1.813534        -1.298004        -0.947467
 O        -0.591339        -1.135926        -0.249983
 C         0.028149         0.126984         0.056005
 O         1.244912         0.078299         0.305619
 C        -0.954987         1.206959         0.144873
 C        -1.845146         1.331705        -1.138262
 H        -3.791410        -0.798443        -3.044885
 H        -3.426692         0.922376        -3.219042
 H        -2.193839        -0.289604        -3.699766
 H        -3.391926        -0.381963         0.507404
 H        -4.027230        -1.494970        -0.718432
 H        -1.697101        -2.239790        -1.415039
 H        -1.497161         0.889970         1.096418
 H        -0.365946         2.167439         0.266884
 H        -2.572889         2.144179        -1.015381
 H        -1.201947         1.702187        -2.004552
