19
Iteration:    20charge 0 multiplicity 1
 C        -3.046958        -0.203903        -2.985837
 C        -2.566054        -0.029437        -1.545975
 C        -3.175326        -0.821370        -0.354999
 C        -1.772072        -1.162802        -0.907399
 O        -0.433948        -1.081860        -0.424565
 C         0.051672         0.076388         0.081489
 O         1.196228         0.063485         0.461913
 C        -0.998615         1.246394         0.140410
 C        -1.767592         1.282011        -1.238253
 H        -3.294138        -1.263654        -3.225055
 H        -4.027679         0.372350        -3.263475
 H        -2.263432         0.256358        -3.699315
 H        -3.459265        -0.354524         0.637301
 H        -3.815384        -1.663643        -0.606558
 H        -1.843845        -2.130879        -1.405543
 H        -1.601685         1.087210         0.964022
 H        -0.490296         2.235670         0.411437
 H        -2.312925         2.331562        -1.474314
 H        -1.004117         1.364051        -2.061856
