19
Iteration:  3582charge 0 multiplicity 1
 C        -3.124804         0.044863        -2.912751
 C        -2.501871        -0.004051        -1.513194
 C        -2.997260        -1.013956        -0.467102
 C        -1.663603        -1.233051        -1.092998
 O        -0.527790        -1.238981        -0.232861
 C         0.049827         0.034941         0.040991
 O         1.055478         0.005713         0.688570
 C        -0.688562         1.381725        -0.241612
 C        -2.073812         1.353503        -1.126787
 H        -3.645299        -0.858335        -3.190105
 H        -3.882181         0.887043        -2.992162
 H        -2.408658         0.308461        -3.639706
 H        -3.087542        -0.791537         0.606578
 H        -3.756242        -1.805281        -0.693490
 H        -1.654093        -2.015492        -1.827960
 H        -0.657943         1.865927         0.779589
 H         0.076528         1.926997        -0.835103
 H        -2.790730         2.020412        -0.521578
 H        -1.858092         2.001899        -2.057743
