19
Iteration:   222charge 0 multiplicity 1
 C        -3.132940        -0.172451        -2.906566
 C        -2.564137        -0.022405        -1.518446
 C        -3.099321        -0.849215        -0.410529
 C        -1.771154        -1.184664        -1.031509
 O        -0.396230        -1.072329        -0.484773
 C         0.048004         0.060608         0.037322
 O         1.074271         0.029062         0.682737
 C        -0.803484         1.301338        -0.047138
 C        -1.848918         1.280871        -1.160373
 H        -3.454613        -1.252142        -3.085935
 H        -4.053458         0.341817        -3.022390
 H        -2.476360         0.330934        -3.620380
 H        -2.927490        -0.544903         0.723276
 H        -3.922208        -1.594699        -0.690622
 H        -1.697386        -2.146071        -1.624978
 H        -1.258640         1.276492         0.850080
 H        -0.155551         2.155441         0.010046
 H        -2.620476         2.059632        -1.030803
 H        -1.436744         1.683734        -2.080080
