19
Iteration:  4965
 C        -2.773248        -0.149089        -3.094095
 C        -2.384484        -0.037975        -1.574674
 C        -3.289770        -0.833323        -0.488641
 C        -1.781088        -1.213482        -0.906962
 O        -0.663822        -1.119720        -0.095993
 C         0.048518         0.114668         0.186085
 O         1.209178         0.088000        -0.035287
 C        -0.883069         1.232147         0.269856
 C        -1.905420         1.235601        -1.025006
 H        -3.452683        -0.931014        -3.199231
 H        -3.297233         0.721047        -3.379552
 H        -1.841809        -0.253722        -3.646313
 H        -3.548489        -0.309571         0.435759
 H        -4.207868        -1.412756        -0.800148
 H        -1.662567        -2.051023        -1.592610
 H        -1.588329         1.126523         1.111088
 H        -0.372126         2.164953         0.368115
 H        -2.855464         1.889941        -0.711099
 H        -1.493782         1.963509        -1.743345
