19
Iteration:  3126
 C        -3.303928        -0.101065        -2.838309
 C        -2.496948        -0.036818        -1.549318
 C        -2.860725        -0.908605        -0.381372
 C        -1.687564        -1.263849        -1.241536
 O        -0.445696        -1.139030        -0.441721
 C         0.006724         0.028353         0.166210
 O         0.968155         0.107503         0.877585
 C        -0.781215         1.358594        -0.193582
 C        -1.863922         1.250882        -1.248114
 H        -3.884765        -1.024922        -3.035900
 H        -4.064526         0.699875        -2.825224
 H        -2.540020        -0.050895        -3.758339
 H        -2.342371        -0.580132         0.521740
 H        -3.844175        -1.485716        -0.429242
 H        -1.616006        -2.050294        -2.073533
 H        -1.201167         1.708545         0.805104
 H        -0.205421         2.245451        -0.407623
 H        -2.658661         2.077600        -0.966509
 H        -1.373184         1.616209        -2.214027
