19
Iteration:  2609
 C        -3.442216        -0.159211        -2.588931
 C        -2.480138        -0.049179        -1.467627
 C        -2.640453        -0.906821        -0.276345
 C        -1.532106        -1.231547        -1.260074
 O        -0.198337        -1.030017        -0.752961
 C        -0.107528         0.143662         0.155215
 O         0.556673        -0.149106         1.132058
 C        -0.764086         1.423522        -0.279222
 C        -1.766699         1.323420        -1.541298
 H        -4.142847        -1.007320        -2.433477
 H        -4.141607         0.760215        -2.631521
 H        -3.057241        -0.144871        -3.615182
 H        -2.451572        -0.658661         0.760951
 H        -3.509940        -1.542379        -0.320227
 H        -1.678563        -2.068981        -1.878345
 H        -1.453312         1.803280         0.643295
 H         0.011594         2.193813        -0.473070
 H        -2.461113         2.083445        -1.432183
 H        -1.271382         1.501923        -2.433244
