19
Iteration:  2188
 C        -3.382593        -0.145721        -2.837355
 C        -2.493485        -0.046220        -1.609037
 C        -2.880178        -0.821432        -0.354431
 C        -1.649201        -1.244398        -1.150560
 O        -0.331761        -1.033466        -0.640889
 C        -0.088091         0.050921         0.279193
 O         1.023324         0.128760         0.784404
 C        -0.975506         1.206050         0.026391
 C        -1.683255         1.232635        -1.329582
 H        -3.842125        -1.209340        -2.970276
 H        -4.333767         0.387623        -2.856319
 H        -3.010601         0.342373        -3.805264
 H        -2.641215        -0.407473         0.627942
 H        -3.707823        -1.494592        -0.462021
 H        -1.563385        -2.253359        -1.661027
 H        -1.618400         1.289615         0.939322
 H        -0.534542         2.122152         0.223631
 H        -2.440399         2.157113        -1.399342
 H        -0.759332         1.348384        -2.081237
