19
Iteration:   537
 C        -3.035491        -0.081879        -3.071553
 C        -2.433208        -0.024933        -1.565767
 C        -3.066777        -0.756269        -0.263155
 C        -1.856113        -1.304714        -0.962095
 O        -0.469068        -1.178009        -0.363663
 C        -0.041947         0.018140         0.119137
 O         1.127207         0.289187         0.329274
 C        -1.050011         1.091572         0.151164
 C        -1.662243         1.235412        -1.209391
 H        -3.100991        -1.198132        -3.470018
 H        -4.012547         0.512812        -3.096529
 H        -2.384620         0.445095        -3.841403
 H        -2.886107        -0.294798         0.733040
 H        -4.075900        -1.284850        -0.220703
 H        -1.987079        -2.249873        -1.278928
 H        -1.770159         0.854303         0.910522
 H        -0.531279         2.203177         0.480423
 H        -2.355723         2.137686        -0.948493
 H        -0.894320         1.554432        -1.958653
