19
Iteration:  3343
 C        -2.874600         0.044879        -3.023317
 C        -2.441467        -0.059085        -1.573754
 C        -3.181291        -1.114858        -0.580301
 C        -1.803400        -1.246897        -0.983624
 O        -0.609543        -1.078839        -0.078718
 C         0.069439         0.088702         0.042229
 O         1.251054        -0.001099         0.394460
 C        -0.712367         1.386190        -0.182886
 C        -2.179341         1.298090        -0.853831
 H        -3.193775        -0.881861        -3.513883
 H        -3.721657         0.773660        -3.203294
 H        -1.999903         0.373492        -3.617493
 H        -3.320079        -0.615088         0.462116
 H        -3.988304        -1.791702        -0.924655
 H        -1.555795        -2.223725        -1.555551
 H        -0.851697         1.852843         0.846991
 H        -0.079470         2.039968        -0.761357
 H        -3.006060         1.487273        -0.148798
 H        -2.289303         2.080794        -1.616375
