19
Iteration:  4420charge 0 multiplicity 1
 C        -3.260426        -0.079992        -2.886834
 C        -2.586902         0.027992        -1.532211
 C        -3.043799        -0.857354        -0.416241
 C        -1.709195        -1.213505        -1.118972
 O        -0.427876        -1.166263        -0.444072
 C         0.076340         0.002439         0.033222
 O         1.108820         0.077809         0.745671
 C        -0.808357         1.221302        -0.045440
 C        -1.825998         1.343615        -1.182366
 H        -3.723303        -1.088694        -2.989578
 H        -4.012736         0.725411        -3.049432
 H        -2.470194        -0.052167        -3.705137
 H        -3.114800        -0.518516         0.639373
 H        -3.958341        -1.445258        -0.741860
 H        -1.559067        -1.919517        -1.914047
 H        -1.423033         1.234040         1.002831
 H        -0.140453         2.059108         0.014893
 H        -2.555610         2.171714        -1.034728
 H        -1.253674         1.498970        -2.109258
