19
Iteration:  1513charge 0 multiplicity 1
 C        -3.083463         0.022557        -2.915315
 C        -2.465946        -0.098749        -1.549616
 C        -3.007019        -1.135312        -0.632549
 C        -1.589808        -1.203241        -1.111851
 O        -0.591592        -1.108976        -0.033808
 C         0.029121         0.126290         0.115596
 O         1.135846         0.065658         0.556236
 C        -0.763041         1.396729        -0.283970
 C        -2.133940         1.282494        -1.016345
 H        -3.424299        -0.994207        -3.193516
 H        -3.958291         0.720069        -2.804522
 H        -2.424332         0.331113        -3.708064
 H        -2.986344        -0.989508         0.420960
 H        -3.677843        -1.901606        -0.799307
 H        -1.206487        -1.966051        -1.773196
 H        -0.807736         2.027843         0.511535
 H        -0.136482         1.890661        -0.905289
 H        -3.003999         1.569049        -0.274527
 H        -2.134443         1.901534        -1.944397
