19
Iteration:  3267charge 0 multiplicity 1
 C        -2.681665         0.004702        -3.075779
 C        -2.424590        -0.057997        -1.541747
 C        -3.277861        -1.036147        -0.541781
 C        -1.676680        -1.199537        -0.913770
 O        -0.724566        -1.112004         0.094764
 C         0.006447         0.121634         0.091468
 O         1.196357         0.059194        -0.140576
 C        -0.904199         1.294057         0.243852
 C        -2.004871         1.275297        -0.971931
 H        -2.895752        -0.960732        -3.457679
 H        -3.679204         0.446296        -3.203943
 H        -1.927906         0.328721        -3.793793
 H        -3.335332        -0.488794         0.444169
 H        -3.925367        -1.847353        -0.943110
 H        -1.310998        -1.985992        -1.685295
 H        -1.390514         1.278126         1.259485
 H        -0.423202         2.258265         0.253952
 H        -2.838783         1.985480        -0.710579
 H        -1.486839         1.591614        -1.768575
