19
Iteration:  4372
 C        -3.372626        -0.033374        -2.664572
 C        -2.418221        -0.066636        -1.526885
 C        -2.869549        -0.808383        -0.298368
 C        -1.643123        -1.272485        -1.143440
 O        -0.284545        -1.051658        -0.700344
 C        -0.034892         0.102527         0.092617
 O         0.837800        -0.105658         0.860315
 C        -0.976515         1.291387        -0.079091
 C        -1.645831         1.319822        -1.393451
 H        -4.221574        -0.860592        -2.713516
 H        -3.773830         1.055330        -2.630920
 H        -2.803425        -0.093735        -3.610299
 H        -2.623064        -0.514486         0.723463
 H        -3.768345        -1.400314        -0.443360
 H        -1.822656        -2.275937        -1.624915
 H        -1.655033         1.144880         0.739354
 H        -0.449559         2.264804         0.154300
 H        -2.460401         2.028638        -1.432698
 H        -0.960842         1.356652        -2.416704
