19
Iteration:  2540charge 0 multiplicity 1
 C        -3.405036        -0.160422        -2.689507
 C        -2.427033        -0.054462        -1.503949
 C        -2.669731        -0.941122        -0.220314
 C        -1.550341        -1.188372        -1.225088
 O        -0.268585        -1.062661        -0.691063
 C        -0.034015         0.058941         0.090688
 O         0.534784        -0.113851         1.143337
 C        -0.706692         1.438888        -0.437500
 C        -1.850087         1.367693        -1.360694
 H        -3.410475        -1.120046        -3.209108
 H        -4.437257         0.132042        -2.362398
 H        -3.209342         0.680815        -3.369401
 H        -2.634147        -0.461857         0.801249
 H        -3.570280        -1.629948        -0.293260
 H        -1.531392        -2.134421        -1.854954
 H        -0.989595         2.098405         0.509739
 H         0.232298         1.878066        -0.783804
 H        -2.573818         2.052520        -1.034392
 H        -1.645362         1.653972        -2.328640
