19
Iteration:  1709
 C        -3.076894         0.064667        -2.838789
 C        -2.454170        -0.126706        -1.464548
 C        -3.081403        -1.166504        -0.633973
 C        -1.592594        -1.260253        -1.144592
 O        -0.565057        -1.071321        -0.213122
 C         0.024933         0.162350         0.058915
 O         0.920727         0.197268         0.877527
 C        -0.562632         1.313224        -0.724894
 C        -2.075680         1.202550        -0.739330
 H        -3.054943        -0.856744        -3.467270
 H        -4.159051         0.304340        -2.711949
 H        -2.576170         0.880854        -3.340038
 H        -3.137203        -1.042450         0.479555
 H        -3.760929        -1.879257        -1.183049
 H        -1.369245        -2.043549        -1.901722
 H        -0.034929         2.204179        -0.321786
 H        -0.051776         1.386493        -1.831233
 H        -2.529319         1.419305         0.205638
 H        -2.424680         1.929283        -1.542015
