19
Iteration:    98
 C        -2.905960        -0.070533        -2.944189
 C        -2.435786        -0.030690        -1.496217
 C        -3.093998        -0.929132        -0.514442
 C        -1.720652        -1.288567        -0.993713
 O        -0.725847        -1.155032         0.036645
 C         0.008931         0.090677        -0.024818
 O         1.208912         0.152774         0.074553
 C        -0.991409         1.270954         0.175018
 C        -1.816619         1.303078        -1.120340
 H        -3.465532        -0.949076        -3.318387
 H        -3.442421         0.932645        -3.110620
 H        -1.966035        -0.171136        -3.556429
 H        -3.175201        -0.551895         0.440138
 H        -4.029102        -1.356502        -0.863243
 H        -1.558719        -2.115215        -1.674810
 H        -1.524113         0.973660         0.959161
 H        -0.461783         2.172961         0.365409
 H        -2.696986         2.020143        -0.921539
 H        -1.167415         1.517503        -1.926728
