19
Iteration:  2359charge 0 multiplicity 1
 C        -2.717569        -0.122084        -2.958918
 C        -2.409741        -0.024890        -1.480516
 C        -3.150069        -0.844665        -0.489846
 C        -1.770139        -1.276906        -0.844749
 O        -0.580817        -1.149429        -0.107191
 C        -0.051753         0.008564         0.036054
 O         1.155886         0.224346        -0.029065
 C        -1.039536         1.171754         0.233662
 C        -1.930669         1.342184        -1.097754
 H        -2.681004        -1.179457        -3.275803
 H        -3.708321         0.362058        -3.250024
 H        -2.048874         0.396641        -3.669090
 H        -3.428498        -0.444609         0.492987
 H        -3.960100        -1.432669        -1.000998
 H        -1.453280        -2.046969        -1.602078
 H        -1.684664         0.859821         0.986058
 H        -0.390429         1.937573         0.766283
 H        -2.840207         2.032004        -0.954985
 H        -1.394116         1.857962        -1.944498
