19
Iteration:   610charge 0 multiplicity 1
 C        -3.054343        -0.067664        -2.953832
 C        -2.518018        -0.030757        -1.526245
 C        -3.023675        -0.972916        -0.484744
 C        -1.665744        -1.168715        -1.116069
 O        -0.598664        -1.138639        -0.088937
 C         0.040467         0.053357         0.006835
 O         1.179091         0.021325         0.472117
 C        -0.860813         1.330775        -0.095375
 C        -1.997283         1.300800        -1.080933
 H        -3.581486        -0.978189        -2.969660
 H        -3.702558         0.804006        -3.226153
 H        -2.308750         0.015447        -3.797006
 H        -3.095568        -0.561989         0.567608
 H        -3.977835        -1.630728        -0.636489
 H        -1.463998        -1.973135        -1.807238
 H        -1.060126         1.558654         1.004253
 H        -0.043496         2.050187        -0.374641
 H        -2.748208         1.973611        -0.767334
 H        -1.574130         1.860768        -1.965534
