19
Iteration:  3543charge 0 multiplicity 1
 C        -3.174518        -0.012507        -2.923535
 C        -2.532735        -0.018865        -1.555102
 C        -3.039324        -0.971494        -0.455740
 C        -1.712501        -1.254957        -1.102130
 O        -0.447820        -1.152942        -0.475881
 C         0.052488         0.036534         0.102290
 O         0.926153        -0.003805         0.920379
 C        -0.497596         1.383063        -0.463381
 C        -2.034047         1.373352        -0.868409
 H        -3.356833        -1.095437        -3.148492
 H        -4.143195         0.431082        -2.836477
 H        -2.572633         0.408958        -3.821287
 H        -3.092496        -0.618218         0.602163
 H        -3.761413        -1.661336        -0.799999
 H        -1.598168        -2.077794        -1.794487
 H        -0.223080         2.276023         0.146446
 H         0.016531         1.450944        -1.431622
 H        -2.741125         1.440014        -0.091455
 H        -2.145435         2.114972        -1.583869
