19
Iteration:  2812charge 0 multiplicity 1
 C        -2.547145        -0.079572        -2.961809
 C        -2.454762        -0.023857        -1.461290
 C        -3.110063        -0.922986        -0.512800
 C        -1.726544        -1.277362        -0.889843
 O        -0.731681        -1.094658         0.093176
 C        -0.073566         0.100415        -0.003476
 O         1.101470         0.129401        -0.273561
 C        -1.029439         1.225609         0.234052
 C        -1.935215         1.279362        -0.971861
 H        -3.092276        -0.879777        -3.454341
 H        -2.892224         0.884743        -3.433410
 H        -1.436765        -0.270254        -3.225425
 H        -3.255288        -0.565429         0.488867
 H        -3.918201        -1.624374        -1.015463
 H        -1.469810        -1.863256        -1.693608
 H        -1.654436         0.895461         1.185347
 H        -0.708924         2.200196         0.519779
 H        -2.834305         1.831105        -0.773942
 H        -1.365507         1.803803        -1.767030
