19
Iteration:  3171charge 0 multiplicity 1
 C        -3.024678        -0.100321        -2.916765
 C        -2.467391        -0.073856        -1.531770
 C        -3.173055        -0.852008        -0.427000
 C        -1.763293        -1.267342        -1.023898
 O        -0.470328        -1.125570        -0.377150
 C         0.061680         0.124848         0.138955
 O         1.231325         0.159764         0.481505
 C        -1.022388         1.235579         0.110451
 C        -1.849761         1.249216        -1.245689
 H        -3.769254        -0.916284        -2.956249
 H        -3.598790         0.793793        -3.224736
 H        -2.247155        -0.362242        -3.787367
 H        -3.170292        -0.359875         0.543054
 H        -3.949638        -1.530699        -0.817045
 H        -1.813233        -2.256503        -1.584500
 H        -1.665221         1.186119         1.044675
 H        -0.499596         2.109262         0.367730
 H        -2.680355         2.074195        -1.241067
 H        -1.128568         1.510292        -2.116786
