19
Iteration:  2613
 C        -3.431469        -0.153413        -2.585589
 C        -2.442666        -0.018290        -1.499362
 C        -2.678119        -0.919751        -0.259225
 C        -1.555406        -1.221762        -1.241468
 O        -0.200766        -1.043041        -0.759545
 C        -0.102734         0.146268         0.147390
 O         0.554420        -0.124589         1.101415
 C        -0.785575         1.429890        -0.226422
 C        -1.759158         1.282248        -1.536639
 H        -4.126320        -1.004656        -2.436938
 H        -3.948126         0.775513        -2.600404
 H        -3.086096        -0.163996        -3.643116
 H        -2.429921        -0.702143         0.752846
 H        -3.496889        -1.652474        -0.243810
 H        -1.649090        -2.104404        -1.897988
 H        -1.271534         1.724725         0.602307
 H        -0.011778         2.209618        -0.423204
 H        -2.559437         2.125745        -1.443086
 H        -1.241500         1.514076        -2.567521
