19
Iteration:  4436
 C        -3.123625        -0.091781        -2.851811
 C        -2.446611         0.050555        -1.506677
 C        -3.184370        -0.979440        -0.467984
 C        -1.805751        -1.174825        -1.039194
 O        -0.474852        -1.148256        -0.388050
 C         0.098384         0.076520         0.090117
 O         1.176416        -0.016945         0.620518
 C        -0.839224         1.276178        -0.080808
 C        -1.870289         1.390324        -1.236523
 H        -3.379343        -1.129199        -3.041712
 H        -4.006605         0.563650        -2.873347
 H        -2.546886         0.262428        -3.678083
 H        -3.129016        -0.694318         0.586865
 H        -3.843655        -1.669449        -0.945321
 H        -1.737273        -2.176975        -1.547957
 H        -1.421934         1.182979         0.808546
 H        -0.316445         2.260671         0.164748
 H        -2.605347         2.104871        -0.868233
 H        -1.395320         1.950910        -2.061963
