19
Iteration:  1609
 C        -3.004600         0.095276        -2.862985
 C        -2.490769        -0.056991        -1.443204
 C        -3.003802        -1.180757        -0.481457
 C        -1.648652        -1.246250        -1.162924
 O        -0.486716        -1.175299        -0.345877
 C         0.047806         0.055490         0.017473
 O         0.800055         0.289045         0.938944
 C        -0.575520         1.283196        -0.781488
 C        -2.100810         1.256054        -0.749133
 H        -3.269468        -0.896353        -3.324174
 H        -3.858285         0.737182        -2.821958
 H        -2.277472         0.593150        -3.446452
 H        -2.965807        -0.959178         0.549836
 H        -3.742997        -1.889241        -0.713896
 H        -1.520341        -2.105385        -1.832010
 H        -0.241324         2.071329        -0.135268
 H        -0.100945         1.460686        -1.901484
 H        -2.512376         1.207319         0.207478
 H        -2.438897         2.077744        -1.343532
