19
Iteration:   194charge 0 multiplicity 1
 C        -2.944717        -0.155734        -2.992599
 C        -2.487433        -0.048445        -1.564178
 C        -3.147005        -0.882510        -0.393452
 C        -1.799399        -1.243117        -0.966409
 O        -0.493853        -1.143536        -0.344809
 C         0.039655         0.026906         0.079434
 O         1.200612         0.026267         0.483703
 C        -0.852843         1.341911        -0.014816
 C        -2.034965         1.379900        -1.079416
 H        -2.978330        -1.139030        -3.417957
 H        -3.962981         0.359391        -3.057856
 H        -2.376891         0.607120        -3.579142
 H        -3.113876        -0.481883         0.588421
 H        -3.986528        -1.530527        -0.653080
 H        -1.777223        -2.090440        -1.579481
 H        -0.997460         1.863955         1.121909
 H        -0.021146         1.999949        -0.511461
 H        -2.960663         1.902369        -0.805001
 H        -1.631179         1.936469        -2.001254
