19
Iteration:  2328
 C        -2.769953        -0.076962        -3.012862
 C        -2.442704        -0.056478        -1.519548
 C        -3.095055        -1.106089        -0.524348
 C        -1.737799        -1.270124        -0.960329
 O        -0.734432        -1.094729         0.014739
 C        -0.025861         0.031600         0.059447
 O         1.181819         0.160908        -0.014606
 C        -0.908561         1.355824         0.190326
 C        -1.959045         1.330907        -1.009166
 H        -3.272681        -1.010323        -3.347036
 H        -3.526694         0.638008        -3.232003
 H        -1.883716         0.253457        -3.610571
 H        -3.269491        -0.487618         0.315539
 H        -3.939790        -1.677854        -0.920272
 H        -1.348224        -2.013917        -1.729216
 H        -1.497493         1.309660         1.132580
 H        -0.157702         2.302176         0.422529
 H        -2.801919         1.888038        -0.811045
 H        -1.420069         1.818951        -1.759281
