19
Iteration:   767charge 0 multiplicity 1
 C        -3.108549         0.263861        -2.685322
 C        -2.459202        -0.092270        -1.386151
 C        -2.990112        -1.220478        -0.577294
 C        -1.537691        -1.196040        -1.218858
 O        -0.543265        -1.151540        -0.218402
 C        -0.015731         0.093515         0.026047
 O         0.684109         0.269342         0.996257
 C        -0.476685         1.158936        -1.039805
 C        -1.980550         1.190440        -0.761588
 H        -3.572418        -0.603767        -3.370192
 H        -3.871796         0.976687        -2.271413
 H        -2.483261         0.742532        -3.455782
 H        -2.997141        -1.147422         0.435679
 H        -3.649410        -1.957855        -0.919433
 H        -1.321816        -1.854600        -2.138359
 H         0.076910         2.031721        -0.781041
 H        -0.229726         0.786888        -2.084180
 H        -2.175594         1.226283         0.253564
 H        -2.442065         2.128384        -1.227498
