19
Iteration:  2652charge 0 multiplicity 1
 C        -3.432194        -0.113912        -2.775751
 C        -2.519324        -0.052559        -1.566666
 C        -2.827816        -0.852191        -0.340511
 C        -1.630383        -1.219847        -1.155636
 O        -0.262325        -1.041333        -0.665046
 C        -0.004472         0.011874         0.188740
 O         0.905680         0.047293         0.972594
 C        -0.941761         1.337399        -0.097159
 C        -1.748577         1.229998        -1.418880
 H        -4.086893        -0.999907        -2.828537
 H        -4.101380         0.806042        -2.925633
 H        -2.708491        -0.126202        -3.592859
 H        -2.481904        -0.552964         0.645847
 H        -3.644657        -1.589770        -0.333342
 H        -1.588454        -2.108934        -1.697620
 H        -1.754917         1.476579         0.788646
 H        -0.240216         2.178728        -0.065119
 H        -2.458979         2.015570        -1.457885
 H        -1.189871         1.303434        -2.312036
