19
Iteration:  1498charge 0 multiplicity 1
 C        -3.056274         0.029150        -2.966208
 C        -2.527920        -0.100217        -1.492722
 C        -2.992296        -1.247278        -0.545576
 C        -1.587303        -1.320504        -1.074212
 O        -0.628040        -1.060950        -0.062053
 C         0.044608         0.107296         0.114028
 O         1.141613         0.109310         0.531574
 C        -0.746421         1.387826        -0.311927
 C        -2.144154         1.331398        -0.990960
 H        -3.641709        -0.747264        -3.453699
 H        -3.670609         0.861979        -3.148986
 H        -2.228236         0.339530        -3.607775
 H        -3.123024        -0.847840         0.475664
 H        -3.740870        -1.689210        -1.281191
 H        -1.260342        -2.044394        -1.840817
 H        -0.756897         1.825579         0.775361
 H        -0.084135         2.140522        -0.956504
 H        -2.816038         1.679046        -0.322858
 H        -2.003066         2.035808        -1.776769
