19
Iteration:  1908charge 0 multiplicity 1
 C        -2.683097         0.261710        -2.860113
 C        -2.453249        -0.158360        -1.395932
 C        -3.238410        -1.150265        -0.636609
 C        -1.715835        -1.286130        -0.959049
 O        -0.651054        -1.101246        -0.076673
 C         0.016716         0.131853        -0.038674
 O         1.030706         0.321629         0.629999
 C        -0.608131         1.208170        -0.860351
 C        -2.170273         1.056010        -0.632730
 H        -2.259511        -0.476587        -3.548686
 H        -3.812444         0.404181        -3.166002
 H        -2.258724         1.348991        -3.185974
 H        -3.538477        -0.875750         0.342141
 H        -3.670849        -2.153211        -0.904520
 H        -1.547778        -2.075573        -1.684747
 H        -0.190433         2.181465        -0.502830
 H        -0.439104         1.144325        -1.853098
 H        -2.385540         0.944008         0.438038
 H        -2.972846         1.867085        -1.021318
