19
Iteration:  4167charge 0 multiplicity 1
 C        -3.074196        -0.039796        -2.903106
 C        -2.403376        -0.128112        -1.571010
 C        -3.137345        -0.783641        -0.405294
 C        -1.778450        -1.283530        -0.969987
 O        -0.498998        -1.084260        -0.415478
 C         0.025269         0.082622         0.050740
 O         1.155761         0.055397         0.418235
 C        -1.031972         1.243426         0.140565
 C        -1.726069         1.279569        -1.172400
 H        -3.373301        -1.070964        -3.185148
 H        -3.949044         0.585351        -2.891402
 H        -2.382088         0.315248        -3.632929
 H        -3.061100        -0.484910         0.627525
 H        -3.921067        -1.517302        -0.662991
 H        -1.644290        -2.267662        -1.454639
 H        -1.811383         1.084818         0.951667
 H        -0.545376         2.241318         0.320691
 H        -2.543282         2.168605        -1.078445
 H        -0.980098         1.545995        -1.931137
