19
Iteration:   321charge 0 multiplicity 1
 C        -3.422741        -0.041715        -2.718362
 C        -2.524765        -0.010807        -1.545805
 C        -2.807453        -0.929922        -0.333500
 C        -1.629392        -1.191019        -1.133334
 O        -0.271680        -1.063393        -0.639387
 C        -0.043127         0.065075         0.162067
 O         0.850945        -0.033203         0.956038
 C        -0.848950         1.326964        -0.166837
 C        -1.756136         1.230115        -1.436073
 H        -3.895833        -1.038792        -2.907318
 H        -4.267319         0.550155        -2.532619
 H        -2.921729         0.256734        -3.659194
 H        -2.655939        -0.396733         0.674968
 H        -3.583894        -1.821963        -0.324151
 H        -1.669473        -2.039596        -1.743946
 H        -1.507550         1.761706         0.829973
 H        -0.080496         2.158190        -0.310628
 H        -2.348080         2.151257        -1.542447
 H        -1.165643         1.163400        -2.336417
