19
Iteration:  2275
 C        -2.932806        -0.055344        -2.994625
 C        -2.435465        -0.043319        -1.555329
 C        -3.127657        -1.068335        -0.536003
 C        -1.719507        -1.254184        -0.996071
 O        -0.616225        -1.101662        -0.050119
 C         0.021992         0.079086         0.041307
 O         1.200169         0.119088         0.277967
 C        -0.875737         1.330295        -0.023674
 C        -2.000813         1.353238        -1.024578
 H        -3.567538        -0.934594        -3.324030
 H        -3.572569         0.773094        -3.066305
 H        -2.032397         0.019259        -3.659168
 H        -3.188849        -0.992193         0.514921
 H        -3.792843        -1.812201        -0.979997
 H        -1.513164        -2.234085        -1.532613
 H        -1.321125         1.273582         1.061863
 H        -0.223280         2.311847        -0.106524
 H        -2.907535         1.781170        -0.535013
 H        -1.604925         2.026630        -1.802817
