19
Iteration:   897charge 0 multiplicity 1
 C        -2.984001        -0.033867        -2.997548
 C        -2.417038        -0.094935        -1.492296
 C        -3.083104        -1.159404        -0.651866
 C        -1.651176        -1.243247        -1.014325
 O        -0.702976        -1.045953        -0.051321
 C        -0.022957         0.151439         0.075863
 O         1.155301         0.046212         0.376952
 C        -0.693316         1.406214        -0.191113
 C        -2.078497         1.289650        -0.858909
 H        -3.567723        -0.937207        -3.167748
 H        -3.726310         0.761364        -3.069560
 H        -2.152446         0.173779        -3.660842
 H        -3.227029        -0.847842         0.338288
 H        -3.626417        -1.958864        -1.017697
 H        -1.305422        -2.022079        -1.812999
 H        -0.727318         2.094525         0.594848
 H         0.075327         1.870068        -0.803438
 H        -2.833960         1.530429        -0.165445
 H        -2.210788         2.125719        -1.726044
