19
Iteration:  3605charge 0 multiplicity 1
 C        -3.060908        -0.033408        -2.818233
 C        -2.418210        -0.040859        -1.497309
 C        -3.116190        -1.033271        -0.540586
 C        -1.725445        -1.337207        -1.091702
 O        -0.602790        -1.140237        -0.253667
 C        -0.001613         0.071818         0.039284
 O         1.083681         0.074147         0.534442
 C        -0.692438         1.363755        -0.130583
 C        -1.892782         1.386897        -1.120012
 H        -3.559086        -0.959971        -2.907933
 H        -3.856113         0.736211        -2.869918
 H        -2.461175         0.146180        -3.650167
 H        -3.275508        -0.897972         0.569189
 H        -4.014435        -1.491386        -0.968990
 H        -1.516338        -2.101453        -1.804078
 H        -1.149117         1.436478         0.937100
 H         0.026401         2.136492        -0.154648
 H        -2.636363         2.059925        -0.597542
 H        -1.581924         2.041264        -1.986687
