19
Iteration:  4960charge 0 multiplicity 1
 C        -2.762191        -0.134423        -3.063898
 C        -2.365672        -0.061528        -1.572539
 C        -3.270416        -0.818302        -0.488674
 C        -1.767742        -1.226394        -0.941762
 O        -0.675860        -1.139281        -0.101711
 C        -0.006446         0.075335         0.171717
 O         1.197294         0.102051        -0.056524
 C        -0.946307         1.293610         0.271313
 C        -1.871393         1.231642        -0.987780
 H        -3.488025        -1.026512        -3.236829
 H        -3.251074         0.862796        -3.412116
 H        -1.816997        -0.396481        -3.600705
 H        -3.418515        -0.232029         0.430878
 H        -4.063716        -1.506655        -0.689562
 H        -1.735088        -2.120735        -1.587526
 H        -1.571182         1.326224         1.179352
 H        -0.261724         2.188126         0.354154
 H        -2.664322         1.822228        -0.674032
 H        -1.412537         1.942627        -1.753009
