19
Iteration:  3189
 C        -2.954607        -0.188374        -3.057127
 C        -2.499187        -0.039601        -1.584623
 C        -3.097029        -0.811211        -0.397135
 C        -1.819690        -1.238531        -0.967622
 O        -0.550671        -1.111172        -0.302645
 C        -0.011955         0.068767         0.068660
 O         1.149263         0.259157         0.287904
 C        -1.017300         1.147271         0.241772
 C        -1.716920         1.219304        -1.088995
 H        -3.512433        -1.085759        -3.257346
 H        -3.446608         0.718817        -3.357425
 H        -2.161001        -0.079122        -3.716217
 H        -3.043440        -0.301724         0.573822
 H        -4.032984        -1.474071        -0.471652
 H        -1.659424        -2.151289        -1.602513
 H        -1.669317         0.930486         1.066060
 H        -0.502048         2.148009         0.482222
 H        -2.384420         2.156329        -1.119034
 H        -0.988627         1.468734        -1.798233
