19
Iteration:  4254charge 0 multiplicity 1
 C        -3.295330        -0.026091        -2.838821
 C        -2.576521        -0.019269        -1.552923
 C        -2.896105        -1.000843        -0.336528
 C        -1.638414        -1.168197        -1.152906
 O        -0.409544        -0.997967        -0.515559
 C        -0.024355         0.054316         0.166733
 O         0.962562        -0.114238         0.894148
 C        -0.644487         1.323522        -0.256986
 C        -1.957707         1.279226        -1.260098
 H        -3.695490        -1.056720        -2.956865
 H        -4.081199         0.720062        -2.898323
 H        -2.662130         0.267263        -3.625277
 H        -2.755804        -0.601869         0.666601
 H        -3.743806        -1.643172        -0.508581
 H        -1.619129        -2.062158        -1.841824
 H        -1.036595         1.902724         0.653107
 H         0.270846         1.839394        -0.638974
 H        -2.718546         1.971979        -0.832445
 H        -1.633239         1.726457        -2.141164
