19
Iteration:   700charge 0 multiplicity 1
 C        -3.189796        -0.043209        -2.867997
 C        -2.476330        -0.059592        -1.480742
 C        -2.939690        -1.017369        -0.517528
 C        -1.632984        -1.253138        -1.160997
 O        -0.502808        -1.134659        -0.299243
 C        -0.024713         0.075523         0.085387
 O         0.914155         0.010545         0.850091
 C        -0.556013         1.350813        -0.532722
 C        -2.044321         1.416237        -0.914306
 H        -3.356279        -1.094803        -3.310028
 H        -4.119945         0.546875        -2.647793
 H        -2.617705         0.456279        -3.701470
 H        -2.930907        -0.771777         0.576197
 H        -3.723452        -1.743882        -0.722858
 H        -1.353981        -2.085699        -1.725407
 H        -0.305919         2.226382         0.101543
 H        -0.107273         1.577918        -1.558035
 H        -2.689266         1.737693        -0.163059
 H        -2.236231         2.087002        -1.831854
