19
Iteration:   326
 C        -3.410468        -0.079101        -2.736003
 C        -2.520532        -0.043929        -1.541657
 C        -2.840094        -0.877139        -0.310146
 C        -1.629625        -1.208940        -1.160120
 O        -0.282345        -1.097985        -0.652757
 C        -0.057025         0.074932         0.155986
 O         0.847999        -0.038924         0.957816
 C        -0.852336         1.376530        -0.149174
 C        -1.765954         1.281886        -1.413152
 H        -3.677958        -1.094282        -3.004760
 H        -4.315617         0.585549        -2.452347
 H        -2.946211         0.226606        -3.684893
 H        -2.595782        -0.548208         0.645530
 H        -3.400086        -1.720030        -0.250499
 H        -1.599902        -2.160876        -1.784166
 H        -1.246615         1.680687         0.675794
 H        -0.039847         2.099079        -0.367543
 H        -2.458251         2.146252        -1.329816
 H        -1.081642         1.269255        -2.324548
