19
Iteration:   803charge 0 multiplicity 1
 C        -2.997101         0.230234        -2.838230
 C        -2.519535        -0.087788        -1.394993
 C        -3.099974        -1.260707        -0.534006
 C        -1.647035        -1.225404        -1.091342
 O        -0.525257        -1.176052        -0.271824
 C         0.047540         0.100559        -0.092982
 O         0.715996         0.288895         0.899608
 C        -0.452417         1.203883        -0.917614
 C        -1.973457         1.240097        -0.610027
 H        -2.957323        -0.686615        -3.431031
 H        -4.070112         0.441349        -2.823402
 H        -2.464515         1.061045        -3.228583
 H        -3.323736        -1.174387         0.542184
 H        -3.564595        -2.015522        -1.138975
 H        -1.405442        -1.943017        -1.889926
 H         0.059099         2.137817        -0.561582
 H        -0.290618         1.216771        -2.106851
 H        -2.103238         1.271359         0.503087
 H        -2.462495         2.064068        -0.993016
