19
Iteration:  1830
 C        -3.009444        -0.040398        -2.981965
 C        -2.430590        -0.033052        -1.544865
 C        -3.013260        -1.293179        -0.718504
 C        -1.593140        -1.191492        -1.016362
 O        -0.743348        -0.995548         0.077670
 C         0.012441         0.156640         0.057855
 O         1.159736         0.030948         0.450977
 C        -0.642555         1.466220        -0.377490
 C        -2.162235         1.235483        -0.776007
 H        -3.531158        -0.977534        -3.269550
 H        -3.807978         0.776725        -3.027081
 H        -2.189573         0.141415        -3.723917
 H        -3.396120        -0.990518         0.300081
 H        -3.605219        -2.077544        -1.272085
 H        -1.261253        -1.958012        -1.683393
 H        -0.424792         2.368257         0.180017
 H        -0.216276         1.738893        -1.236340
 H        -2.853339         1.222149         0.056827
 H        -2.533932         2.174485        -1.331078
