19
Iteration:   977
 C        -2.632450        -0.061780        -2.985620
 C        -2.451974        -0.090148        -1.521333
 C        -3.162667        -1.026383        -0.492611
 C        -1.796353        -1.269866        -0.998584
 O        -0.683515        -1.114628        -0.078160
 C         0.006269         0.115097         0.001443
 O         1.199983         0.128061         0.189838
 C        -0.792807         1.351455        -0.099572
 C        -2.188045         1.302389        -0.801276
 H        -2.477110        -1.082710        -3.556764
 H        -3.660128         0.359120        -3.150812
 H        -1.896504         0.502887        -3.546728
 H        -3.263387        -0.670710         0.544970
 H        -3.969253        -1.724901        -0.887311
 H        -1.710929        -2.164711        -1.521815
 H        -0.988340         1.698719         0.911636
 H        -0.222077         1.989245        -0.604171
 H        -3.136971         1.607005        -0.305919
 H        -1.947679         2.008284        -1.749739
