19
Iteration:  1205
 C        -3.387582        -0.044925        -2.803484
 C        -2.520484        -0.045848        -1.545537
 C        -2.827899        -1.071589        -0.431647
 C        -1.538478        -1.216862        -1.279820
 O        -0.385316        -1.198995        -0.355020
 C         0.042182         0.034962         0.136152
 O         0.937900         0.065284         0.954588
 C        -0.765898         1.414011        -0.271466
 C        -1.955863         1.383984        -1.295214
 H        -4.116674        -0.962075        -3.019130
 H        -4.113752         0.773727        -2.714868
 H        -2.863917         0.106666        -3.714908
 H        -2.612361        -0.688859         0.666223
 H        -3.679872        -1.819929        -0.554097
 H        -1.484662        -2.039142        -1.967901
 H        -1.141337         1.931111         0.554495
 H        -0.040469         2.275840        -0.685225
 H        -2.754212         1.995599        -0.832311
 H        -1.801077         1.700477        -2.271619
