19
Iteration:  1948charge 0 multiplicity 1
 C        -2.902339         0.084698        -2.902755
 C        -2.550547        -0.052065        -1.440174
 C        -3.107070        -1.229839        -0.606127
 C        -1.617197        -1.247926        -1.128798
 O        -0.673681        -1.110087        -0.119940
 C         0.045293         0.130856         0.050998
 O         1.004264         0.206170         0.791443
 C        -0.546609         1.328401        -0.839531
 C        -2.145016         1.243571        -0.664994
 H        -3.055985        -0.941497        -3.291146
 H        -3.884834         0.443268        -2.824202
 H        -2.201668         0.568733        -3.464838
 H        -3.223156        -1.164946         0.489524
 H        -3.787871        -1.995547        -1.094311
 H        -1.332334        -1.930836        -1.895336
 H        -0.032089         2.253171        -0.527887
 H        -0.077174         1.284896        -1.899902
 H        -2.450307         1.349608         0.387008
 H        -2.594488         2.094955        -1.079112
