19
Iteration:  4283
 C        -3.342819        -0.037440        -2.753064
 C        -2.505811         0.043942        -1.508403
 C        -2.817769        -0.921742        -0.342478
 C        -1.678317        -1.255715        -1.198303
 O        -0.314303        -1.280002        -0.655341
 C        -0.022088        -0.003832         0.119010
 O         0.777588         0.074694         0.981654
 C        -0.642858         1.340633        -0.268583
 C        -1.901355         1.375967        -1.226152
 H        -3.441180        -1.089030        -3.202292
 H        -4.463411         0.227653        -2.547368
 H        -2.938569         0.626684        -3.591712
 H        -2.658299        -0.505824         0.652937
 H        -3.859213        -1.317852        -0.370786
 H        -1.717112        -2.047045        -1.941612
 H        -0.976863         1.719471         0.642003
 H         0.356559         1.855531        -0.531760
 H        -2.592688         2.113007        -0.824783
 H        -1.412527         1.777750        -2.216762
