19
Iteration:   607charge 0 multiplicity 1
 C        -3.054297        -0.065374        -2.969073
 C        -2.532984        -0.012200        -1.529889
 C        -3.027723        -0.981435        -0.474830
 C        -1.679666        -1.165510        -1.125218
 O        -0.619800        -1.154580        -0.076773
 C         0.041966         0.066733         0.014428
 O         1.185783         0.042064         0.460415
 C        -0.837339         1.324885        -0.086463
 C        -1.957964         1.307286        -1.075569
 H        -3.627932        -1.023731        -3.047264
 H        -3.745255         0.808412        -3.120900
 H        -2.292167        -0.087886        -3.884992
 H        -3.029749        -0.639877         0.538248
 H        -3.876352        -1.639198        -0.631683
 H        -1.450749        -2.071169        -1.836943
 H        -1.150766         1.495594         0.932417
 H        -0.206650         2.050527        -0.292027
 H        -2.803042         2.025365        -0.729431
 H        -1.518422         1.772852        -1.951617
