19
Iteration:  1915
 C        -2.682048         0.254355        -2.860774
 C        -2.510321        -0.139782        -1.414601
 C        -3.212317        -1.159085        -0.601798
 C        -1.688527        -1.266676        -0.973629
 O        -0.647098        -1.082395        -0.101084
 C         0.024269         0.114801        -0.046954
 O         0.979357         0.333284         0.641872
 C        -0.581049         1.189955        -0.856115
 C        -2.165599         1.066922        -0.629425
 H        -2.401785        -0.522011        -3.622549
 H        -3.769474         0.361263        -3.040816
 H        -2.349759         1.165465        -3.221576
 H        -3.617635        -0.803267         0.395075
 H        -3.616125        -2.102824        -1.091939
 H        -1.497255        -2.154692        -1.537716
 H        -0.252892         2.017167        -0.222926
 H        -0.406760         1.130895        -2.030962
 H        -2.217535         0.803423         0.448115
 H        -2.631373         1.959025        -0.964625
