19
Iteration:  1159charge 0 multiplicity 1
 C        -3.335669        -0.155057        -2.809424
 C        -2.478804        -0.054616        -1.576480
 C        -2.915710        -0.928122        -0.316038
 C        -1.705295        -1.259320        -1.129805
 O        -0.315697        -1.052724        -0.677694
 C        -0.033373         0.095371         0.143373
 O         0.966129         0.122628         0.833302
 C        -0.960964         1.283449         0.045665
 C        -1.695801         1.269070        -1.329809
 H        -3.877675        -1.100389        -2.965657
 H        -4.078343         0.673027        -2.846257
 H        -2.683896        -0.106493        -3.743751
 H        -2.734331        -0.498329         0.675980
 H        -3.883025        -1.449084        -0.410108
 H        -1.771920        -1.991584        -1.879458
 H        -1.521599         1.333276         0.915202
 H        -0.332656         2.212751         0.197848
 H        -2.354859         2.173169        -1.579816
 H        -0.878453         1.213493        -2.034643
