19
Iteration:  3082
 C        -3.475376        -0.187488        -2.650720
 C        -2.467109        -0.024511        -1.556139
 C        -2.860424        -0.904075        -0.322719
 C        -1.548192        -1.209958        -1.175870
 O        -0.231684        -1.051000        -0.712895
 C         0.004233         0.117067         0.086058
 O         0.615138        -0.100364         1.132788
 C        -0.648850         1.417438        -0.314820
 C        -1.783824         1.323954        -1.359275
 H        -3.536643        -1.182457        -3.146397
 H        -4.482635        -0.045644        -2.261712
 H        -3.023686         0.467855        -3.517242
 H        -2.825210        -0.474348         0.718632
 H        -3.696114        -1.621603        -0.517265
 H        -1.661449        -2.079304        -1.827237
 H        -1.085090         1.889137         0.611326
 H         0.200640         2.029703        -0.611867
 H        -2.511756         2.066527        -1.102590
 H        -1.380835         1.566049        -2.386754
