19
Iteration:  4485charge 0 multiplicity 1
 C        -2.949953        -0.020015        -3.043993
 C        -2.418285        -0.024849        -1.486910
 C        -3.137434        -0.878832        -0.420827
 C        -1.780817        -1.283181        -1.010710
 O        -0.658131        -1.224372        -0.055396
 C         0.007360        -0.003235         0.100547
 O         1.203316         0.170630         0.165347
 C        -0.888046         1.187729         0.116568
 C        -1.857353         1.352924        -1.145055
 H        -2.882460        -0.990285        -3.592226
 H        -3.973577         0.407312        -3.114274
 H        -2.342105         0.739615        -3.660127
 H        -3.104175        -0.233263         0.457339
 H        -3.989571        -1.477410        -0.768423
 H        -1.582327        -2.007144        -1.766033
 H        -1.538267         1.140830         0.990501
 H        -0.237334         1.968751         0.338923
 H        -2.667404         2.051626        -0.800270
 H        -1.333502         1.871978        -2.010131
