19
Iteration:  4405
 C        -3.315488        -0.068322        -2.878190
 C        -2.500403        -0.013134        -1.558744
 C        -2.889020        -0.835586        -0.369454
 C        -1.687428        -1.165057        -1.200256
 O        -0.395015        -1.148542        -0.504054
 C        -0.071103         0.009570         0.140088
 O         1.017457         0.056352         0.736887
 C        -0.862408         1.233582         0.011956
 C        -1.778206         1.253751        -1.230808
 H        -4.118091        -0.873021        -3.042716
 H        -3.945971         0.879302        -2.991477
 H        -2.606383        -0.106457        -3.712364
 H        -2.605261        -0.360188         0.559314
 H        -3.740598        -1.446344        -0.164115
 H        -1.941385        -2.119875        -1.692362
 H        -1.285343         1.362542         0.965163
 H        -0.163962         2.057762        -0.217573
 H        -2.434371         2.111918        -1.086013
 H        -1.088018         1.572570        -2.169155
