19
Iteration:  4987
 C        -2.822773        -0.122073        -3.017996
 C        -2.481404         0.014338        -1.549208
 C        -3.278234        -0.831276        -0.587696
 C        -1.800716        -1.230987        -0.854845
 O        -0.616353        -1.144162        -0.022327
 C         0.130214         0.040843        -0.103544
 O         1.319335         0.074285         0.141739
 C        -1.018498         1.220794         0.132634
 C        -1.931441         1.354152        -0.995997
 H        -3.104535        -1.107957        -3.231830
 H        -3.603134         0.526594        -3.322082
 H        -1.853319         0.118126        -3.459575
 H        -3.663266        -0.398512         0.334051
 H        -3.902147        -1.736035        -0.811081
 H        -1.778518        -2.196547        -1.390674
 H        -1.583217         0.949835         1.037136
 H        -0.462595         2.073563         0.424351
 H        -2.711417         2.257411        -0.834817
 H        -1.368416         1.868338        -1.792341
