19
Iteration:   661charge 0 multiplicity 1
 C        -3.004681        -0.112143        -2.958050
 C        -2.589516        -0.055889        -1.495494
 C        -3.077614        -0.918985        -0.439617
 C        -1.741784        -1.208981        -1.054917
 O        -0.496184        -1.111695        -0.382275
 C         0.056540         0.049267         0.022878
 O         1.039180         0.094838         0.731539
 C        -0.639281         1.271494        -0.313452
 C        -2.057453         1.285722        -0.954668
 H        -3.139095        -1.113229        -3.382379
 H        -3.953187         0.450939        -3.083358
 H        -2.429235         0.651403        -3.454271
 H        -3.055892        -0.564578         0.544076
 H        -3.869068        -1.639541        -0.550720
 H        -1.749969        -2.147371        -1.792334
 H        -0.543732         1.817340         0.590369
 H         0.133872         1.780760        -0.947330
 H        -2.793143         1.932886        -0.297691
 H        -1.867864         1.956916        -1.739922
