19
Iteration:  3146
 C        -3.239016        -0.073207        -2.903352
 C        -2.456265        -0.071249        -1.572941
 C        -3.001228        -0.965791        -0.382163
 C        -1.657144        -1.226500        -1.023296
 O        -0.404360        -1.117407        -0.381893
 C         0.018821         0.114975         0.065795
 O         1.020422         0.068742         0.701334
 C        -0.875113         1.259686        -0.077533
 C        -1.866180         1.338688        -1.281678
 H        -3.951625        -0.892578        -3.014773
 H        -3.727866         0.867702        -3.116623
 H        -2.519451        -0.172416        -3.731964
 H        -3.076013        -0.443146         0.580619
 H        -3.705705        -1.772534        -0.741817
 H        -1.681853        -2.184931        -1.580882
 H        -1.294333         1.381155         0.906675
 H        -0.156898         2.135570        -0.009213
 H        -2.727591         2.169978        -1.026973
 H        -1.319624         1.753746        -2.121521
