19
Iteration:  1183charge 0 multiplicity 1
 C        -3.374256        -0.037648        -2.735909
 C        -2.410918        -0.080490        -1.590571
 C        -2.875873        -0.995528        -0.431118
 C        -1.563620        -1.269325        -1.170643
 O        -0.375658        -1.029322        -0.487759
 C        -0.048672         0.117023         0.135147
 O         0.919645         0.041389         0.873630
 C        -0.826844         1.296690        -0.143661
 C        -1.857556         1.293791        -1.329585
 H        -4.057647        -0.980046        -2.743896
 H        -4.024403         0.853331        -2.729377
 H        -2.913472        -0.164091        -3.682548
 H        -2.733274        -0.788674         0.713596
 H        -3.731304        -1.695770        -0.694761
 H        -1.546384        -2.136508        -1.774683
 H        -1.283215         1.631339         0.770814
 H        -0.094733         2.257387        -0.280333
 H        -2.635086         2.031908        -1.157982
 H        -1.408062         1.490351        -2.245341
