19
Iteration:  4108
 C        -3.003296        -0.053679        -2.900207
 C        -2.371232        -0.012652        -1.578867
 C        -3.034861        -0.801850        -0.394090
 C        -1.708771        -1.262796        -0.967748
 O        -0.637974        -1.165670        -0.250314
 C        -0.001227         0.066736         0.087963
 O         1.187698         0.100010         0.223666
 C        -1.037506         1.137330         0.134393
 C        -1.803322         1.315510        -1.141048
 H        -3.129227        -1.036459        -3.365960
 H        -3.997314         0.479346        -3.026050
 H        -2.161441         0.388162        -3.564196
 H        -3.228578        -0.304001         0.571484
 H        -3.941395        -1.353966        -0.635612
 H        -1.631462        -2.119892        -1.651463
 H        -1.863057         0.922841         0.813887
 H        -0.629794         2.185258         0.585561
 H        -2.647387         2.129160        -0.996680
 H        -1.259471         1.678936        -2.045745
