19
Iteration:  3618charge 0 multiplicity 1
 C        -3.103082        -0.076222        -2.873895
 C        -2.475561        -0.003747        -1.471730
 C        -3.086435        -0.932646        -0.543319
 C        -1.741872        -1.214871        -1.120251
 O        -0.631060        -1.115185        -0.232744
 C         0.050505         0.069514         0.075533
 O         1.189193         0.052987         0.468982
 C        -0.824662         1.311398         0.018359
 C        -1.849025         1.284957        -1.134767
 H        -3.469877        -1.031888        -3.149641
 H        -3.870434         0.612611        -2.994902
 H        -2.277323         0.140404        -3.520597
 H        -3.078179        -0.804533         0.557080
 H        -3.782291        -1.604982        -1.000788
 H        -1.647232        -2.104778        -1.748425
 H        -1.298900         1.531436         1.060934
 H        -0.163381         2.099001        -0.169227
 H        -2.725101         1.877531        -0.948003
 H        -1.476764         1.606379        -2.112870
