19
Iteration:  1149
 C        -3.284246        -0.159452        -2.873597
 C        -2.481465        -0.023624        -1.540579
 C        -2.914113        -0.857960        -0.257736
 C        -1.698676        -1.209920        -1.108660
 O        -0.324354        -1.021206        -0.679366
 C        -0.023038         0.072326         0.137621
 O         0.996859         0.100156         0.790332
 C        -1.053758         1.180394         0.084480
 C        -1.716199         1.272701        -1.374609
 H        -3.747691        -1.190994        -2.863958
 H        -4.151750         0.512489        -2.960294
 H        -2.659637         0.068006        -3.748001
 H        -2.631193        -0.495094         0.763661
 H        -3.815586        -1.542817        -0.257853
 H        -1.639869        -2.092648        -1.666148
 H        -1.797423         1.110126         0.807937
 H        -0.392047         2.194020         0.168715
 H        -2.121712         2.284338        -1.595109
 H        -0.963547         1.186514        -2.080980
