19
Iteration:  2598charge 0 multiplicity 1
 C        -3.566253        -0.170598        -2.614700
 C        -2.477297        -0.019262        -1.505426
 C        -2.603023        -0.923067        -0.280377
 C        -1.505442        -1.218603        -1.261557
 O        -0.219660        -0.938207        -0.743201
 C        -0.072985        -0.000925         0.162138
 O         0.537640        -0.148806         1.199633
 C        -0.757970         1.409184        -0.404180
 C        -1.755629         1.360613        -1.446692
 H        -4.017835        -1.201784        -2.627781
 H        -4.409095         0.598162        -2.571313
 H        -2.915373        -0.198933        -3.482907
 H        -2.284816        -0.454960         0.651885
 H        -3.537760        -1.426571        -0.326683
 H        -1.388040        -2.097744        -1.847904
 H        -1.304326         1.886576         0.582269
 H         0.093363         2.095717        -0.537481
 H        -2.393989         2.172705        -1.406487
 H        -1.293497         1.354302        -2.371800
