19
Iteration:  2323
 C        -2.787373        -0.050110        -3.049925
 C        -2.450971        -0.062210        -1.518110
 C        -3.123169        -1.101973        -0.542273
 C        -1.688498        -1.279998        -0.957869
 O        -0.745567        -1.089390         0.032452
 C        -0.019535         0.095732         0.068479
 O         1.188816         0.153260         0.001426
 C        -0.850456         1.316006         0.208413
 C        -1.972726         1.333802        -1.018064
 H        -3.299983        -0.975458        -3.301850
 H        -3.638415         0.723754        -3.224823
 H        -1.887679         0.081682        -3.649250
 H        -3.314696        -0.640588         0.486037
 H        -3.889456        -1.796545        -0.916657
 H        -1.454888        -1.987474        -1.705725
 H        -1.544234         1.300144         1.053066
 H        -0.216215         2.090186         0.200461
 H        -2.961221         1.926315        -0.729026
 H        -1.396404         1.827956        -1.894988
