19
Iteration:  1349
 C        -3.050412         0.248396        -2.869498
 C        -2.552945        -0.089721        -1.406344
 C        -3.036462        -1.374108        -0.717358
 C        -1.633168        -1.249317        -1.171294
 O        -0.701959        -0.987352         0.029595
 C         0.038468         0.114127         0.003287
 O         0.943940         0.308325         0.794687
 C        -0.490494         1.213084        -0.896540
 C        -2.009809         1.126099        -0.613802
 H        -3.400583        -0.576133        -3.540782
 H        -3.854825         1.025487        -2.822301
 H        -2.286336         0.611124        -3.521937
 H        -2.991347        -1.578900         0.293046
 H        -3.797956        -1.911540        -1.200415
 H        -1.036846        -1.802843        -1.943786
 H         0.172604         2.011836        -0.813272
 H        -0.287192         0.869941        -1.889565
 H        -2.315118         0.915816         0.440852
 H        -2.492413         2.034301        -0.956910
