19
Iteration:  1652
 C        -3.158663         0.211946        -2.740981
 C        -2.492937        -0.075117        -1.423712
 C        -2.961461        -1.376351        -0.692545
 C        -1.576815        -1.266065        -1.250686
 O        -0.634645        -1.040002        -0.156531
 C         0.103999         0.155239         0.045167
 O         0.768583         0.302153         1.050742
 C        -0.470741         1.183185        -0.990291
 C        -1.998600         1.248317        -0.739974
 H        -3.800259        -0.737101        -2.936129
 H        -3.786527         1.080560        -2.605439
 H        -2.491975         0.316678        -3.608956
 H        -2.958641        -1.557339         0.312837
 H        -3.639797        -2.036888        -1.110904
 H        -1.269285        -1.766543        -2.183943
 H         0.046952         2.068973        -0.759841
 H        -0.237970         0.665892        -2.045092
 H        -1.982124         1.266466         0.380711
 H        -2.595567         2.128746        -1.060838
