19
Iteration:  2576charge 0 multiplicity 1
 C        -3.557684        -0.211507        -2.645376
 C        -2.493914        -0.099187        -1.573369
 C        -2.664468        -0.866665        -0.282422
 C        -1.548974        -1.168177        -1.285508
 O        -0.184484        -0.982356        -0.817262
 C        -0.072671         0.082453         0.180237
 O         0.482775        -0.088431         1.212828
 C        -0.626900         1.377583        -0.292309
 C        -1.742404         1.318431        -1.405188
 H        -3.865013        -1.303323        -2.741688
 H        -4.467022         0.115894        -2.016425
 H        -3.264717         0.085066        -3.644569
 H        -2.426401        -0.318591         0.665205
 H        -3.444692        -1.561882        -0.420204
 H        -1.745797        -2.049709        -1.885626
 H        -0.948370         2.193164         0.601643
 H         0.338794         1.771648        -0.668798
 H        -2.439490         2.023434        -1.129817
 H        -1.252486         1.566805        -2.290147
