19
Iteration:  1872
 C        -2.761873         0.129727        -2.921515
 C        -2.538350        -0.057002        -1.448749
 C        -3.127935        -1.275318        -0.684004
 C        -1.684047        -1.195157        -0.962226
 O        -0.731726        -1.034960         0.044297
 C         0.028512         0.078594        -0.043204
 O         1.097113         0.189438         0.510403
 C        -0.650053         1.317802        -0.696400
 C        -2.179507         1.191068        -0.635952
 H        -2.348385        -0.843886        -3.388645
 H        -3.862256         0.287629        -3.226648
 H        -2.056026         0.909680        -3.221201
 H        -3.446194        -1.172338         0.420305
 H        -3.565284        -2.161329        -1.252837
 H        -1.248612        -1.772801        -1.778406
 H        -0.251583         2.121011        -0.048284
 H        -0.155841         1.309238        -1.754324
 H        -2.456372         1.147298         0.467323
 H        -2.732153         2.020480        -1.223718
