19
Iteration:  4939
 C        -2.697337        -0.080917        -2.993614
 C        -2.367807         0.029443        -1.499585
 C        -3.096889        -0.848794        -0.446849
 C        -1.779644        -1.375535        -0.878021
 O        -0.650076        -1.238115        -0.072990
 C        -0.143026         0.067626        -0.030385
 O         1.072111         0.164338        -0.019109
 C        -0.960778         1.235477         0.236586
 C        -1.888273         1.373164        -1.069503
 H        -3.592952        -0.777153        -3.172445
 H        -3.060269         0.975977        -3.293756
 H        -1.786353        -0.395651        -3.532217
 H        -3.166863        -0.524137         0.599652
 H        -4.040648        -1.230684        -0.772832
 H        -1.747612        -2.252263        -1.533808
 H        -1.454430         1.101706         1.163622
 H        -0.291652         2.114737         0.362423
 H        -2.595121         2.195505        -1.222314
 H        -1.041700         1.748786        -1.806406
