19
Iteration:  3644charge 0 multiplicity 1
 C        -3.101728        -0.069296        -3.082162
 C        -2.524816         0.016888        -1.547746
 C        -3.058534        -0.894981        -0.391480
 C        -1.767170        -1.210060        -0.954004
 O        -0.495633        -1.156696        -0.227062
 C         0.029947         0.119361         0.133341
 O         1.205677         0.021926         0.337587
 C        -0.981717         1.175875         0.181827
 C        -1.785305         1.381198        -1.239463
 H        -3.383779        -1.147851        -3.348347
 H        -4.090915         0.496791        -3.150052
 H        -2.354599         0.357032        -3.845740
 H        -2.978915        -0.344913         0.517785
 H        -3.845436        -1.661861        -0.483860
 H        -1.704083        -2.106349        -1.615465
 H        -1.664694         0.922403         0.953418
 H        -0.508036         2.184102         0.581711
 H        -2.507958         2.225151        -1.267702
 H        -1.265452         1.588191        -2.164692
