19
Iteration:  3609
 C        -3.071127        -0.040147        -2.809903
 C        -2.432827        -0.009049        -1.487586
 C        -3.110646        -0.993063        -0.544190
 C        -1.715988        -1.326548        -1.098806
 O        -0.624521        -1.130115        -0.254486
 C        -0.006040         0.105968         0.053639
 O         1.113515         0.073978         0.515176
 C        -0.710037         1.333962        -0.067342
 C        -1.894292         1.358037        -1.153558
 H        -3.524045        -1.046174        -2.978939
 H        -3.832779         0.691036        -2.874352
 H        -2.356773         0.111554        -3.685919
 H        -3.257831        -0.951912         0.522174
 H        -3.924965        -1.544970        -1.000792
 H        -1.641731        -2.167302        -1.848950
 H        -1.129725         1.371158         0.961562
 H         0.055338         2.124584        -0.178495
 H        -2.571236         1.902310        -0.596662
 H        -1.570891         1.844594        -2.046913
