19
Iteration:  4007charge 0 multiplicity 1
 C        -3.047118        -0.068646        -2.920290
 C        -2.426405        -0.007326        -1.532489
 C        -3.144944        -1.025316        -0.529715
 C        -1.709979        -1.226059        -1.116399
 O        -0.601412        -1.168889        -0.234731
 C        -0.018213         0.050483         0.149891
 O         1.161795         0.096526         0.535787
 C        -0.698237         1.298833        -0.269932
 C        -1.987845         1.354926        -0.889661
 H        -3.367662        -1.042501        -3.305261
 H        -3.887187         0.633166        -2.944040
 H        -2.293261         0.389379        -3.739868
 H        -3.085952        -0.732920         0.494908
 H        -4.065393        -1.494397        -0.769091
 H        -1.488775        -1.962966        -1.929922
 H        -0.621404         1.909399         0.676015
 H         0.025798         1.799141        -0.862863
 H        -2.911795         1.630403        -0.240002
 H        -2.098471         2.086509        -1.737767
