19
Iteration:  3311
 C        -2.771700        -0.015896        -2.929235
 C        -2.437916         0.009198        -1.495858
 C        -3.153865        -1.143825        -0.659563
 C        -1.719022        -1.188457        -1.010528
 O        -0.735600        -1.136771         0.135527
 C        -0.034063         0.042988        -0.032062
 O         1.196104         0.063672         0.109214
 C        -0.786039         1.348849        -0.055463
 C        -2.064049         1.370234        -0.888161
 H        -3.226712        -0.965363        -3.242218
 H        -3.406592         0.835761        -3.273527
 H        -1.810773         0.068308        -3.495438
 H        -3.225462        -0.943109         0.479148
 H        -3.914352        -1.697932        -1.223075
 H        -1.422551        -1.940083        -1.829134
 H        -0.970541         1.611049         1.068949
 H        -0.102442         2.132428        -0.262917
 H        -3.033772         1.650480        -0.409318
 H        -1.882996         1.924904        -1.726011
