19
Iteration:   516
 C        -2.993853        -0.143466        -2.933022
 C        -2.494428        -0.042449        -1.528253
 C        -3.076751        -0.700252        -0.342710
 C        -1.767510        -1.211268        -0.970152
 O        -0.468435        -1.227500        -0.407631
 C         0.011504         0.002422         0.025955
 O         1.157335         0.213709         0.417457
 C        -1.042055         1.158913         0.180725
 C        -1.826495         1.270350        -1.229777
 H        -2.946715        -1.265681        -3.293894
 H        -4.001007         0.330409        -3.151840
 H        -2.338027         0.492697        -3.617599
 H        -3.233448        -0.033450         0.522473
 H        -3.941627        -1.393603        -0.483206
 H        -1.926019        -2.078284        -1.503826
 H        -1.607363         1.045640         1.061443
 H        -0.380146         2.056596         0.306744
 H        -2.545927         2.201317        -1.295131
 H        -1.044820         1.438008        -1.990500
