19
Iteration:   949charge 0 multiplicity 1
 C        -2.694947        -0.044095        -2.968738
 C        -2.497019        -0.059618        -1.466914
 C        -3.213562        -1.073767        -0.550085
 C        -1.756227        -1.226699        -0.914039
 O        -0.586221        -1.144765        -0.077302
 C        -0.006103         0.148102        -0.020690
 O         1.173011         0.091032         0.228051
 C        -0.778919         1.354787        -0.129292
 C        -2.147381         1.290807        -0.887599
 H        -2.690008        -1.029631        -3.324039
 H        -3.685560         0.345149        -3.172241
 H        -1.815216         0.498266        -3.455214
 H        -3.643931        -0.712229         0.375124
 H        -3.833276        -1.705867        -1.239536
 H        -1.632450        -2.121209        -1.617928
 H        -1.021143         1.744221         0.908043
 H         0.025494         2.195246        -0.632234
 H        -3.019315         1.546138        -0.219902
 H        -2.166028         2.009027        -1.634587
