19
Iteration:  1295charge 0 multiplicity 1
 C        -3.048437         0.038277        -2.906138
 C        -2.548963        -0.034682        -1.436172
 C        -2.959399        -1.114009        -0.495888
 C        -1.642838        -1.262132        -1.155933
 O        -0.474963        -1.163377        -0.355441
 C        -0.043170         0.081041         0.087576
 O         0.879248         0.220230         0.904153
 C        -0.598520         1.301134        -0.700437
 C        -2.071455         1.271924        -0.787047
 H        -3.175386        -0.991540        -3.277426
 H        -4.068251         0.465151        -3.016551
 H        -2.309394         0.641511        -3.421187
 H        -2.911995        -0.763165         0.479732
 H        -3.756637        -1.774031        -0.746224
 H        -1.510897        -2.064017        -1.949772
 H        -0.133880         2.154909        -0.140147
 H        -0.025123         1.125706        -1.703926
 H        -2.437238         1.399523         0.207685
 H        -2.416956         2.106199        -1.319852
