19
Iteration:  3403
 C        -3.074785         0.121919        -2.873641
 C        -2.568219         0.036271        -1.401248
 C        -3.006015        -1.193584        -0.571514
 C        -1.609594        -1.166179        -1.182574
 O        -0.534762        -1.137634        -0.234095
 C         0.011265         0.106249         0.083216
 O         0.948226         0.020662         0.893981
 C        -0.503543         1.246170        -0.787997
 C        -2.187273         1.331347        -0.736119
 H        -3.016601        -0.881515        -3.348551
 H        -4.038766         0.593221        -2.969408
 H        -2.303573         0.771448        -3.337292
 H        -3.019312        -1.005677         0.459383
 H        -3.759244        -1.805125        -1.021648
 H        -1.438860        -1.811386        -1.997191
 H         0.015148         2.147001        -0.509943
 H        -0.137004         1.030335        -1.856681
 H        -2.506650         1.557255         0.357573
 H        -2.384147         2.073037        -1.524937
