19
Iteration:  3529
 C        -3.176510        -0.032755        -2.816977
 C        -2.473504         0.050261        -1.441322
 C        -3.031163        -0.994257        -0.517811
 C        -1.663490        -1.232215        -1.113650
 O        -0.398929        -1.162006        -0.455227
 C         0.039849         0.050366         0.017230
 O         0.767387        -0.019932         0.961059
 C        -0.495644         1.355854        -0.674282
 C        -2.003691         1.349622        -0.839585
 H        -3.243035        -1.026187        -3.160581
 H        -4.194569         0.387167        -2.828319
 H        -2.530181         0.455670        -3.493818
 H        -3.212071        -0.724721         0.544261
 H        -3.805789        -1.671647        -1.030553
 H        -1.637615        -2.090045        -1.782034
 H        -0.221833         2.092899         0.201189
 H         0.102673         1.668251        -1.461346
 H        -2.333316         1.613083         0.097363
 H        -2.395752         2.224568        -1.384252
