19
Iteration:  4506charge 0 multiplicity 1
 C        -2.864577        -0.047169        -2.895688
 C        -2.369026        -0.027520        -1.500661
 C        -3.174814        -0.825358        -0.564412
 C        -1.836455        -1.215630        -0.849816
 O        -0.528787        -1.172096        -0.096811
 C         0.040244         0.022653        -0.019416
 O         1.203731         0.075990         0.066267
 C        -1.114886         1.206918         0.174976
 C        -1.842014         1.305670        -1.077722
 H        -2.965474        -1.112319        -3.280799
 H        -3.801252         0.558586        -3.090006
 H        -2.181742         0.531716        -3.615042
 H        -3.439487        -0.288465         0.362700
 H        -3.856628        -1.436609        -1.170036
 H        -1.930981        -2.121633        -1.366552
 H        -1.690654         0.891708         0.962665
 H        -0.656593         2.056119         0.506179
 H        -2.499031         2.205928        -1.031081
 H        -1.056128         1.798632        -1.851078
