19
Iteration:   691charge 0 multiplicity 1
 C        -3.131605        -0.069970        -2.899761
 C        -2.492482         0.002433        -1.547009
 C        -2.967986        -1.041697        -0.439555
 C        -1.623330        -1.238816        -1.073944
 O        -0.464343        -1.174262        -0.306745
 C        -0.022511         0.058913         0.115586
 O         0.960932        -0.040181         0.808904
 C        -0.624512         1.458763        -0.501643
 C        -2.126241         1.402494        -0.976589
 H        -3.432387        -1.012537        -3.440496
 H        -4.100932         0.400230        -2.732057
 H        -2.547007         0.528450        -3.534916
 H        -2.859518        -0.658395         0.522874
 H        -3.761331        -1.664004        -0.693929
 H        -1.611240        -1.968098        -1.917101
 H        -0.264192         2.226595         0.193340
 H         0.211421         1.401966        -1.434068
 H        -2.754468         1.740580        -0.184877
 H        -2.187015         2.149414        -1.774999
