19
Iteration:  1172charge 0 multiplicity 1
 C        -3.356089        -0.111856        -2.768858
 C        -2.479833        -0.082128        -1.520513
 C        -2.893060        -0.923138        -0.423308
 C        -1.634846        -1.286790        -1.216479
 O        -0.357426        -1.046353        -0.594432
 C        -0.034441         0.087862         0.131557
 O         0.919234         0.100508         0.849846
 C        -0.888599         1.363212        -0.037531
 C        -1.703164         1.227484        -1.291444
 H        -4.068601        -1.016957        -2.659732
 H        -4.041941         0.752313        -2.823418
 H        -2.776458        -0.054983        -3.647902
 H        -2.881325        -0.560019         0.688247
 H        -3.711212        -1.679169        -0.647865
 H        -1.536181        -2.245257        -1.620954
 H        -1.578524         1.461158         0.789034
 H        -0.076907         2.277485        -0.153030
 H        -2.460557         1.995726        -1.190411
 H        -1.193945         1.495073        -2.153115
