19
Iteration:   996charge 0 multiplicity 1
 C        -2.760034        -0.049191        -3.034304
 C        -2.520521        -0.055131        -1.508895
 C        -3.146474        -1.020653        -0.574690
 C        -1.686608        -1.198801        -0.894625
 O        -0.614140        -1.111858         0.012633
 C         0.024715         0.052347        -0.045575
 O         1.204623         0.067073         0.224879
 C        -0.877107         1.336623        -0.145923
 C        -2.174958         1.308573        -0.892345
 H        -2.764244        -1.095592        -3.367098
 H        -3.670732         0.462435        -3.289474
 H        -1.853333         0.341464        -3.401494
 H        -3.323320        -0.569135         0.378946
 H        -3.793181        -1.759201        -0.846833
 H        -1.267012        -1.895479        -1.691984
 H        -1.139332         1.460585         0.916433
 H        -0.066645         2.250058        -0.394451
 H        -2.941258         1.413774        -0.201670
 H        -2.162972         2.205833        -1.597472
