19
Iteration:  4073
 C        -3.043766        -0.012202        -3.008086
 C        -2.486918        -0.027020        -1.470441
 C        -3.174031        -1.024273        -0.551123
 C        -1.733266        -1.262890        -0.988750
 O        -0.618975        -1.215997        -0.142084
 C         0.055731         0.071399         0.038961
 O         1.206529         0.135091         0.327807
 C        -0.787283         1.311866         0.010655
 C        -1.947360         1.344078        -0.990416
 H        -3.508439        -0.955757        -3.280288
 H        -3.586360         0.894309        -3.339977
 H        -2.043252         0.084616        -3.636242
 H        -3.313499        -0.600525         0.399202
 H        -3.889195        -1.719053        -0.937600
 H        -1.651146        -2.091426        -1.752919
 H        -1.104675         1.452662         1.065955
 H        -0.100282         2.063759        -0.270931
 H        -2.606766         2.174220        -0.673175
 H        -1.419030         1.761317        -1.881441
