19
Iteration:  4766charge 0 multiplicity 1
 C        -3.541386        -0.060157        -2.710193
 C        -2.504130        -0.008461        -1.507128
 C        -2.732734        -0.848893        -0.308474
 C        -1.607315        -1.134786        -1.287532
 O        -0.295155        -1.072273        -0.662166
 C         0.003401        -0.023921         0.097570
 O         0.710518        -0.046338         1.157085
 C        -0.753995         1.303573        -0.245575
 C        -1.701460         1.255939        -1.446426
 H        -4.216761        -0.846966        -2.396005
 H        -4.010368         0.922541        -2.781284
 H        -3.037020        -0.349305        -3.577125
 H        -2.285081        -0.609365         0.652976
 H        -3.641929        -1.474220        -0.275085
 H        -1.567395        -1.940327        -2.097632
 H        -1.422236         1.380491         0.690075
 H        -0.085982         2.253442        -0.258698
 H        -2.384262         2.152882        -1.479642
 H        -1.166219         1.192312        -2.347912
