19
Iteration:  1395charge 0 multiplicity 1
 C        -2.889222         0.145619        -2.930736
 C        -2.480929        -0.121201        -1.398815
 C        -3.161485        -1.349861        -0.671412
 C        -1.667046        -1.279337        -1.013209
 O        -0.651709        -1.108809        -0.041370
 C         0.029149         0.148761        -0.036114
 O         1.062426         0.196312         0.643737
 C        -0.583111         1.386045        -0.682795
 C        -2.155088         1.257043        -0.680146
 H        -2.748588        -0.671899        -3.603453
 H        -3.956182         0.459413        -2.885556
 H        -2.302137         0.913970        -3.454742
 H        -3.546762        -1.120868         0.255384
 H        -3.759081        -2.001254        -1.169589
 H        -1.296737        -1.901579        -1.786537
 H        -0.159601         2.356703        -0.215092
 H        -0.158503         1.431946        -1.739637
 H        -2.443009         1.398086         0.346809
 H        -2.537418         2.075084        -1.258294
