19
Iteration:  2462
 C        -3.257653        -0.125179        -2.899395
 C        -2.458907        -0.039718        -1.646926
 C        -2.903295        -0.993267        -0.369428
 C        -1.687128        -1.187927        -1.130786
 O        -0.478281        -1.119295        -0.373522
 C         0.014655         0.100217         0.148505
 O         1.062533         0.109991         0.753208
 C        -0.833368         1.335711        -0.103372
 C        -1.909369         1.279127        -1.262949
 H        -3.958317        -0.980005        -2.870662
 H        -3.906247         0.715150        -2.993623
 H        -2.618975        -0.262096        -3.815157
 H        -2.789325        -0.707201         0.673538
 H        -3.842536        -1.513659        -0.626702
 H        -1.578161        -2.026507        -1.750725
 H        -1.324105         1.384576         0.940270
 H        -0.027151         2.110786        -0.126463
 H        -2.693119         1.941464        -1.077616
 H        -1.407372         1.646285        -2.102888
