19
Iteration:  3931charge 0 multiplicity 1
 C        -3.071750         0.118476        -2.811403
 C        -2.529284         0.037558        -1.384835
 C        -3.067742        -1.158059        -0.591623
 C        -1.650713        -1.177843        -1.225379
 O        -0.560689        -1.175968        -0.208702
 C         0.048045         0.069411        -0.019951
 O         0.817030         0.184331         0.897409
 C        -0.459190         1.182400        -0.850637
 C        -1.961929         1.281735        -0.683866
 H        -3.185396        -0.835707        -3.263279
 H        -4.042607         0.532826        -2.692181
 H        -2.631283         0.834511        -3.470184
 H        -3.029256        -1.134393         0.492171
 H        -3.763803        -1.859383        -0.995855
 H        -1.509099        -1.878055        -2.051888
 H        -0.076075         2.140951        -0.396735
 H        -0.112366         1.043944        -1.951083
 H        -2.196597         1.260936         0.451937
 H        -2.475044         2.104869        -1.163483
