19
Iteration:  1489
 C        -3.000921         0.058998        -2.982477
 C        -2.528264        -0.113799        -1.485479
 C        -3.022837        -1.251080        -0.571700
 C        -1.646450        -1.295720        -1.036257
 O        -0.676157        -1.087217        -0.109005
 C         0.032606         0.119357         0.014450
 O         1.167871         0.172819         0.548061
 C        -0.699435         1.384849        -0.255415
 C        -2.099482         1.318472        -0.961392
 H        -3.504700        -0.875438        -3.302343
 H        -3.636114         0.912589        -3.065525
 H        -2.184502         0.084844        -3.625316
 H        -3.331368        -1.101350         0.441746
 H        -3.750006        -1.959152        -0.970895
 H        -1.281062        -2.024463        -1.761058
 H        -0.737116         1.859018         0.655223
 H        -0.075008         2.042871        -0.815447
 H        -2.855296         1.641522        -0.247172
 H        -2.158739         1.984081        -1.835786
