19
Iteration:  2649
 C        -3.439463        -0.119848        -2.775211
 C        -2.523854        -0.026939        -1.551357
 C        -2.806329        -0.851984        -0.342490
 C        -1.628554        -1.259455        -1.160624
 O        -0.262804        -1.040998        -0.693571
 C        -0.030563         0.035690         0.181999
 O         0.870586         0.055457         0.985720
 C        -0.926205         1.340935        -0.090997
 C        -1.722076         1.224627        -1.417496
 H        -4.118492        -0.936630        -2.811300
 H        -4.076866         0.778909        -2.826145
 H        -2.683240        -0.191591        -3.537696
 H        -2.430559        -0.518943         0.722029
 H        -3.620995        -1.587670        -0.404280
 H        -1.572431        -2.242937        -1.712772
 H        -1.568786         1.457287         0.738238
 H        -0.238863         2.140945        -0.024048
 H        -2.503035         2.087310        -1.347479
 H        -1.205311         1.253991        -2.446088
