19
Iteration:   947charge 0 multiplicity 1
 C        -2.695463        -0.046939        -2.966401
 C        -2.487451        -0.053027        -1.470168
 C        -3.206569        -1.068297        -0.554586
 C        -1.752008        -1.213992        -0.920194
 O        -0.591583        -1.132229        -0.075885
 C         0.006501         0.127961        -0.020040
 O         1.176078         0.090315         0.234122
 C        -0.788835         1.351773        -0.153031
 C        -2.158813         1.278482        -0.882772
 H        -2.763561        -1.101794        -3.313595
 H        -3.709561         0.369913        -3.140344
 H        -1.819291         0.534534        -3.429831
 H        -3.661712        -0.719495         0.398413
 H        -3.827983        -1.768274        -1.273864
 H        -1.618994        -2.070079        -1.539607
 H        -0.990315         1.730524         0.913604
 H        -0.040222         2.139519        -0.576897
 H        -3.068259         1.588605        -0.219336
 H        -2.082360         2.039583        -1.594405
