19
Iteration:   961charge 0 multiplicity 1
 C        -2.676310        -0.057800        -2.997362
 C        -2.489394        -0.094318        -1.454940
 C        -3.250353        -1.069915        -0.559972
 C        -1.789201        -1.366433        -0.907330
 O        -0.619176        -1.167498        -0.109668
 C        -0.002743         0.097670         0.021384
 O         1.179366         0.131549         0.190319
 C        -0.789817         1.479404        -0.063431
 C        -2.105468         1.338678        -0.889660
 H        -2.519580        -0.978373        -3.423959
 H        -3.558014         0.350881        -3.457415
 H        -1.887219         0.621856        -3.457266
 H        -3.389969        -0.686409         0.438984
 H        -4.071108        -1.701932        -0.832633
 H        -1.521037        -2.117387        -1.760891
 H        -0.921949         1.846769         0.977018
 H         0.036982         2.262205        -0.639232
 H        -2.810504         1.600612        -0.103148
 H        -2.308021         2.030151        -1.666624
