19
Iteration:  4160
 C        -3.048924        -0.077102        -2.873113
 C        -2.379412        -0.084485        -1.576454
 C        -3.188714        -0.787047        -0.435793
 C        -1.812145        -1.278331        -0.961047
 O        -0.504740        -1.053735        -0.439162
 C        -0.029307         0.083877         0.114772
 O         1.172686         0.118311         0.380113
 C        -0.976826         1.165795         0.188480
 C        -1.703504         1.253769        -1.199596
 H        -3.309821        -1.089977        -3.145363
 H        -3.941284         0.563622        -2.856140
 H        -2.478628         0.489803        -3.678274
 H        -3.126287        -0.497452         0.608945
 H        -3.954203        -1.470417        -0.768747
 H        -1.793846        -2.329308        -1.338033
 H        -1.699245         1.067269         1.004157
 H        -0.435701         2.025396         0.320695
 H        -2.476756         1.946270        -1.099483
 H        -1.021535         1.532915        -2.049034
