19
Iteration:  3541
 C        -3.177311        -0.020831        -2.909767
 C        -2.523979         0.000602        -1.530396
 C        -3.022715        -0.967981        -0.474954
 C        -1.703140        -1.263726        -1.098824
 O        -0.440295        -1.155489        -0.478641
 C         0.044110         0.030001         0.083007
 O         0.907268        -0.007385         0.937345
 C        -0.493056         1.388066        -0.511960
 C        -2.031885         1.377372        -0.851294
 H        -3.315032        -1.058058        -3.123644
 H        -4.156179         0.430881        -2.902299
 H        -2.626284         0.406305        -3.752968
 H        -3.181414        -0.660283         0.594551
 H        -3.795199        -1.685030        -0.849856
 H        -1.649824        -2.120056        -1.734171
 H        -0.229569         2.280876         0.208917
 H        -0.015313         1.515287        -1.414646
 H        -2.649497         1.438303        -0.078498
 H        -2.179772         2.118397        -1.596161
