19
Iteration:   925charge 0 multiplicity 1
 C        -2.837591        -0.035525        -3.021794
 C        -2.505023        -0.056383        -1.509475
 C        -3.138640        -1.080941        -0.616326
 C        -1.702676        -1.251437        -1.010707
 O        -0.696227        -1.094638         0.040670
 C         0.125386         0.103326        -0.028114
 O         1.273661         0.093057         0.330018
 C        -0.780679         1.295774        -0.158171
 C        -2.220592         1.337056        -0.889496
 H        -3.187950        -1.067273        -3.323297
 H        -3.733780         0.593580        -3.193511
 H        -1.893720         0.232951        -3.601575
 H        -3.158556        -0.623851         0.402382
 H        -3.974029        -1.855222        -0.951946
 H        -1.399093        -1.913367        -1.771807
 H        -0.955145         1.698447         0.911328
 H        -0.114250         2.132941        -0.693822
 H        -3.047838         1.592842        -0.113603
 H        -2.277801         2.075492        -1.632032
