19
Iteration:  4935charge 0 multiplicity 1
 C        -2.711852        -0.046539        -2.981209
 C        -2.344991         0.033742        -1.472994
 C        -3.128632        -0.865556        -0.403151
 C        -1.758842        -1.370070        -0.870853
 O        -0.648284        -1.251189        -0.066613
 C        -0.135595         0.058251        -0.028400
 O         1.077308         0.176374        -0.012327
 C        -0.990936         1.223681         0.181905
 C        -1.866090         1.391192        -1.132429
 H        -3.507498        -0.796734        -3.204427
 H        -3.000495         0.934585        -3.307771
 H        -1.815268        -0.406890        -3.545844
 H        -3.177572        -0.511728         0.622573
 H        -4.104102        -1.215974        -0.813709
 H        -1.688227        -2.196235        -1.660544
 H        -1.582623         0.926329         1.197791
 H        -0.291191         2.033022         0.474512
 H        -2.556570         2.218216        -1.084775
 H        -1.127049         1.699916        -1.787805
