19
Iteration:  4383
 C        -3.343855        -0.000037        -2.753271
 C        -2.358746        -0.051323        -1.570667
 C        -2.788221        -0.855275        -0.269806
 C        -1.668373        -1.320009        -1.074383
 O        -0.357728        -1.064071        -0.667943
 C        -0.102364         0.008360         0.119085
 O         0.945804        -0.080497         0.819699
 C        -0.983906         1.331452        -0.033755
 C        -1.758790         1.320079        -1.413675
 H        -4.263194        -0.731654        -2.771306
 H        -3.867089         1.026081        -2.817251
 H        -2.792109        -0.129779        -3.695711
 H        -2.628905        -0.426774         0.716755
 H        -3.807855        -1.151182        -0.353142
 H        -1.663345        -2.298574        -1.641917
 H        -1.739675         1.338834         0.736016
 H        -0.322608         2.217793         0.144581
 H        -2.502815         2.110865        -1.385310
 H        -0.985534         1.734264        -2.256789
