19
Iteration:  2527
 C        -3.402452        -0.109320        -2.727246
 C        -2.537295        -0.029615        -1.465736
 C        -2.693868        -0.948605        -0.296909
 C        -1.577132        -1.205850        -1.221709
 O        -0.243523        -1.100828        -0.664979
 C        -0.145781         0.036117         0.154146
 O         0.627544        -0.019140         1.094365
 C        -0.604716         1.408883        -0.365469
 C        -1.891950         1.310574        -1.333838
 H        -3.229690        -1.121651        -3.150992
 H        -4.433480         0.080223        -2.602541
 H        -2.931188         0.481176        -3.555610
 H        -2.288455        -0.535883         0.626433
 H        -3.598686        -1.638348        -0.218832
 H        -1.699819        -2.033030        -1.889926
 H        -0.820417         1.923399         0.548074
 H         0.015001         2.110190        -0.984359
 H        -2.684337         2.073529        -1.086939
 H        -1.463092         1.614960        -2.314673
