19
Iteration:  1005charge 0 multiplicity 1
 C        -2.796697        -0.090106        -3.008354
 C        -2.524469        -0.049555        -1.554522
 C        -3.158260        -1.064230        -0.611604
 C        -1.696956        -1.205166        -0.945691
 O        -0.596439        -1.145998         0.070427
 C         0.054588         0.102949        -0.011043
 O         1.234775         0.059613         0.239114
 C        -0.806779         1.349292        -0.143392
 C        -2.208385         1.389819        -0.887209
 H        -3.007015        -0.999719        -3.461523
 H        -3.613664         0.586338        -3.234028
 H        -1.948903         0.324799        -3.628019
 H        -3.319102        -0.768554         0.415512
 H        -3.810799        -1.787738        -0.926446
 H        -1.479564        -2.093684        -1.673615
 H        -1.175739         1.387899         0.885557
 H        -0.152975         2.381803        -0.365429
 H        -3.060058         1.636507        -0.243546
 H        -2.221795         2.101557        -1.626887
