19
Iteration:  3856charge 0 multiplicity 1
 C        -3.180770         0.267253        -2.821841
 C        -2.575307        -0.017026        -1.431940
 C        -3.040847        -1.149650        -0.621054
 C        -1.584269        -1.228505        -1.125007
 O        -0.522203        -1.150248        -0.187446
 C         0.053297         0.041452        -0.022674
 O         0.752728         0.178729         0.933222
 C        -0.402781         1.208252        -0.894379
 C        -1.924198         1.207200        -0.711108
 H        -3.430796        -0.732258        -3.200632
 H        -4.186317         0.865934        -2.872519
 H        -2.488280         0.684980        -3.554964
 H        -2.985462        -1.339747         0.450076
 H        -3.651631        -1.929510        -0.973654
 H        -1.401905        -2.067942        -1.814347
 H         0.011770         2.207891        -0.508288
 H        -0.200127         1.089499        -2.078792
 H        -2.323182         1.294325         0.367670
 H        -2.404899         2.112322        -1.042356
