19
Iteration:   929charge 0 multiplicity 1
 C        -2.819898        -0.046085        -2.992141
 C        -2.478422        -0.062825        -1.504803
 C        -3.168564        -1.069773        -0.634217
 C        -1.707233        -1.235971        -0.961812
 O        -0.694177        -1.080236         0.004970
 C         0.112417         0.070982        -0.028978
 O         1.278078         0.099809         0.319387
 C        -0.809341         1.286804        -0.154024
 C        -2.217444         1.354675        -0.857756
 H        -3.004178        -0.989305        -3.407644
 H        -3.670158         0.582910        -3.195394
 H        -1.966318         0.211614        -3.609581
 H        -3.207303        -0.655598         0.340538
 H        -3.831030        -1.830913        -0.862850
 H        -1.389252        -1.955613        -1.834648
 H        -0.939844         1.602361         0.869434
 H        -0.209688         2.115819        -0.765414
 H        -2.961019         1.645294        -0.167845
 H        -2.324376         1.971746        -1.794841
