19
Iteration:  4858charge 0 multiplicity 1
 C        -3.095301        -0.169200        -2.915638
 C        -2.431837         0.028671        -1.518376
 C        -3.111196        -0.749328        -0.434151
 C        -1.733742        -1.219629        -1.011522
 O        -0.470659        -1.154840        -0.329491
 C        -0.002007        -0.003407         0.099796
 O         1.173614         0.038211         0.490135
 C        -0.963444         1.233529         0.025411
 C        -1.841764         1.335714        -1.213597
 H        -2.951623        -1.206800        -3.293969
 H        -4.133823         0.152163        -2.979834
 H        -2.554697         0.521351        -3.665443
 H        -3.181205        -0.190887         0.517278
 H        -4.034603        -1.259530        -0.743914
 H        -1.698711        -2.062338        -1.681965
 H        -1.692083         1.226563         0.939992
 H        -0.278455         2.074502         0.063849
 H        -2.595541         2.018173        -1.006764
 H        -1.190170         1.697913        -1.952768
