19
Iteration:  2409
 C        -2.930927        -0.147902        -2.940214
 C        -2.434068        -0.104537        -1.592680
 C        -3.164600        -0.800661        -0.422551
 C        -1.756112        -1.283247        -0.912062
 O        -0.503405        -1.106849        -0.357051
 C        -0.035584         0.116718         0.158701
 O         1.164281         0.240202         0.215143
 C        -1.096959         1.157731         0.197598
 C        -1.728415         1.253753        -1.147139
 H        -3.204161        -1.117123        -3.314480
 H        -3.731975         0.613496        -3.042479
 H        -2.162203         0.092131        -3.692974
 H        -3.291895        -0.230867         0.514272
 H        -3.950404        -1.575674        -0.618423
 H        -1.725968        -2.252246        -1.310993
 H        -1.916399         0.897265         1.033399
 H        -0.568746         2.023772         0.538826
 H        -2.489906         1.997713        -0.999270
 H        -0.990077         1.706329        -1.799659
