19
Iteration:  2089
 C        -3.336911        -0.257351        -2.770125
 C        -2.421246        -0.066254        -1.582176
 C        -2.839396        -0.919838        -0.279395
 C        -1.612809        -1.214139        -1.170735
 O        -0.298059        -1.000220        -0.696830
 C        -0.050931         0.062047         0.150447
 O         0.753361        -0.092424         1.043762
 C        -0.657200         1.386762        -0.373946
 C        -1.961009         1.413887        -1.151738
 H        -3.444510        -1.370695        -3.179911
 H        -4.364983         0.137564        -2.762091
 H        -2.736895         0.232713        -3.686031
 H        -2.699735        -0.477807         0.722751
 H        -3.761870        -1.411157        -0.586419
 H        -1.621549        -2.036572        -1.827318
 H        -0.896370         2.024845         0.464173
 H         0.057003         2.036143        -0.759291
 H        -2.777823         2.033923        -0.590216
 H        -1.705405         2.031930        -2.058695
