19
Iteration:  1412charge 0 multiplicity 1
 C        -2.801339         0.057493        -2.891629
 C        -2.554484        -0.056462        -1.471749
 C        -3.098340        -1.185983        -0.593634
 C        -1.719969        -1.282922        -1.071151
 O        -0.648851        -1.070935        -0.120674
 C         0.010822         0.127357         0.008349
 O         1.124398         0.179549         0.589725
 C        -0.659552         1.354709        -0.548641
 C        -2.157037         1.222244        -0.753380
 H        -2.528648        -0.953150        -3.359694
 H        -3.832300         0.287167        -3.170833
 H        -2.138143         0.870917        -3.206051
 H        -3.164590        -1.077411         0.537084
 H        -3.811991        -1.969710        -1.085628
 H        -1.493163        -2.124443        -1.792536
 H        -0.443526         2.087522         0.155172
 H        -0.281424         1.628207        -1.511797
 H        -2.723290         1.198604         0.259473
 H        -2.660072         2.068538        -1.308777
