19
Iteration:  4246
 C        -3.300657        -0.068117        -2.839508
 C        -2.512991        -0.058839        -1.536353
 C        -2.918701        -1.004996        -0.388237
 C        -1.656737        -1.201172        -1.105670
 O        -0.418176        -1.037121        -0.516580
 C         0.017651         0.117001         0.189779
 O         0.971762        -0.165050         0.864070
 C        -0.662643         1.406602        -0.273084
 C        -1.934167         1.322989        -1.233323
 H        -3.878490        -0.937762        -3.036470
 H        -3.970485         0.755282        -2.748913
 H        -2.624575         0.098697        -3.704598
 H        -3.000425        -0.553380         0.612777
 H        -3.797726        -1.557551        -0.670534
 H        -1.648927        -2.050566        -1.831586
 H        -1.059650         1.843994         0.712510
 H        -0.023374         2.145422        -0.587053
 H        -2.681432         2.055170        -0.688305
 H        -1.769677         1.848984        -2.225729
