19
Iteration:  2011
 C        -3.297673         0.012897        -2.833093
 C        -2.473020        -0.122289        -1.530566
 C        -2.966126        -1.087845        -0.557793
 C        -1.591714        -1.245735        -1.170655
 O        -0.464789        -1.072341        -0.304899
 C         0.014870         0.131983         0.137300
 O         0.911308         0.144531         0.910025
 C        -0.547778         1.324213        -0.454539
 C        -1.985220         1.220224        -1.034038
 H        -3.989883        -0.929769        -3.040723
 H        -4.073082         0.817635        -2.696486
 H        -2.884178         0.173653        -3.945514
 H        -2.918050        -0.948859         0.516837
 H        -3.737423        -1.784092        -1.000449
 H        -1.359074        -2.101576        -1.823807
 H        -0.575586         2.112246         0.299414
 H         0.065773         1.756085        -1.311537
 H        -2.712582         1.661943        -0.245447
 H        -2.019969         1.872761        -1.947455
