19
Iteration:  4177
 C        -3.103891        -0.035585        -2.965029
 C        -2.482574        -0.025923        -1.528768
 C        -3.002826        -0.845624        -0.359759
 C        -1.715912        -1.293265        -1.010979
 O        -0.469648        -1.158302        -0.358526
 C         0.024071         0.093319         0.021239
 O         1.164455        -0.002995         0.479636
 C        -1.048852         1.321098         0.094413
 C        -1.817342         1.293215        -1.191766
 H        -3.571051        -0.984210        -3.328418
 H        -3.915731         0.711055        -2.982333
 H        -2.330486         0.176056        -3.661645
 H        -3.091508        -0.274096         0.556995
 H        -3.927781        -1.440382        -0.461932
 H        -1.794048        -2.131499        -1.693214
 H        -1.660423         0.991433         0.977172
 H        -0.580024         2.336595         0.403542
 H        -2.600909         2.157643        -1.352182
 H        -1.090505         1.531186        -1.960808
