19
Iteration:  1369
 C        -2.988658         0.232795        -2.820829
 C        -2.522537        -0.066657        -1.444819
 C        -3.029262        -1.298140        -0.758715
 C        -1.567583        -1.210994        -1.115418
 O        -0.775195        -1.050601         0.027266
 C         0.070037         0.140970         0.030605
 O         1.055284         0.278800         0.749822
 C        -0.570420         1.170860        -0.903877
 C        -2.132378         1.124072        -0.634087
 H        -3.153474        -0.791872        -3.420044
 H        -3.975571         0.767966        -2.762720
 H        -2.258664         0.782001        -3.441176
 H        -3.424867        -1.117234         0.297520
 H        -3.605898        -2.120395        -1.321468
 H        -1.106047        -1.927220        -1.884624
 H        -0.240617         2.099542        -0.698287
 H        -0.311118         0.959323        -1.898871
 H        -2.291668         0.992273         0.567105
 H        -2.455747         2.183954        -0.934240
