19
Iteration:  1436
 C        -2.786810        -0.065825        -3.052973
 C        -2.514928        -0.050856        -1.540238
 C        -3.116819        -1.117686        -0.511613
 C        -1.666977        -1.178698        -1.034860
 O        -0.544550        -1.125487        -0.152404
 C         0.010882         0.109897         0.058387
 O         1.114435         0.099229         0.494943
 C        -0.748663         1.389206        -0.384807
 C        -2.230340         1.286080        -0.703671
 H        -2.840097        -1.165399        -3.401893
 H        -3.819356         0.396029        -3.194487
 H        -2.004118         0.501312        -3.577000
 H        -3.267289        -0.669276         0.437921
 H        -3.837765        -1.862616        -0.731781
 H        -1.432921        -1.920065        -1.821199
 H        -0.494862         2.014531         0.386962
 H        -0.382310         1.801551        -1.247858
 H        -3.028712         1.281817         0.182279
 H        -2.588286         2.162442        -1.320304
