19
Iteration:  4948
 C        -2.708816        -0.116058        -2.986965
 C        -2.406741        -0.057433        -1.538090
 C        -3.104897        -0.800626        -0.516954
 C        -1.828959        -1.303044        -0.936389
 O        -0.654167        -1.193620        -0.081388
 C        -0.082964         0.035515         0.026323
 O         1.098724         0.136349        -0.042378
 C        -0.979748         1.308034         0.286556
 C        -1.838109         1.343516        -0.968792
 H        -3.582475        -0.854111        -3.213154
 H        -3.060476         0.873067        -3.436682
 H        -1.837982        -0.368351        -3.644387
 H        -3.112775        -0.369587         0.482920
 H        -3.902436        -1.498795        -0.731693
 H        -1.766362        -2.331262        -1.397436
 H        -1.504331         1.361027         1.302677
 H        -0.297733         2.187230         0.122788
 H        -2.689635         1.939089        -0.953529
 H        -1.184497         1.644025        -1.797696
