19
Iteration:  4199
 C        -3.158141        -0.046254        -2.933363
 C        -2.537016         0.015545        -1.546546
 C        -2.963107        -0.880225        -0.349185
 C        -1.684034        -1.166417        -1.128529
 O        -0.490418        -1.167127        -0.353807
 C        -0.007553        -0.059131         0.153104
 O         1.124036         0.106308         0.597031
 C        -0.896512         1.179261        -0.067339
 C        -1.882031         1.350703        -1.229514
 H        -3.815705        -0.937913        -3.110278
 H        -3.807686         0.814114        -3.094290
 H        -2.357688        -0.208879        -3.594996
 H        -2.765938        -0.642433         0.681752
 H        -3.746112        -1.654122        -0.353131
 H        -1.643287        -1.993837        -1.857899
 H        -1.539136         1.411944         0.842860
 H        -0.115964         2.032436        -0.062219
 H        -2.632919         2.203772        -0.920738
 H        -1.392353         1.809251        -2.057063
