19
Iteration:  1874
 C        -2.749358         0.143701        -2.939755
 C        -2.552620        -0.050461        -1.431567
 C        -3.137562        -1.273128        -0.674680
 C        -1.666559        -1.222788        -0.958415
 O        -0.719052        -1.033934         0.038018
 C         0.027946         0.088433        -0.029530
 O         1.088979         0.192898         0.510743
 C        -0.648060         1.290854        -0.722214
 C        -2.179316         1.195910        -0.631002
 H        -2.336234        -0.785718        -3.403746
 H        -3.868019         0.269341        -3.213967
 H        -2.027066         0.969021        -3.225606
 H        -3.472620        -1.194225         0.389854
 H        -3.578420        -2.158949        -1.234129
 H        -1.310236        -1.845839        -1.751218
 H        -0.239521         2.115433        -0.115588
 H        -0.198853         1.382777        -1.681651
 H        -2.470262         1.168021         0.433204
 H        -2.785569         2.058776        -1.167555
