19
Iteration:  3552charge 0 multiplicity 1
 C        -3.177891        -0.022081        -2.959155
 C        -2.505178        -0.046117        -1.573521
 C        -3.062158        -0.983994        -0.432037
 C        -1.727240        -1.198861        -1.144670
 O        -0.459099        -1.120136        -0.435804
 C         0.026902         0.070331         0.142515
 O         1.009976        -0.004433         0.876825
 C        -0.553178         1.312440        -0.380421
 C        -2.048821         1.315418        -0.930823
 H        -3.480423        -0.988574        -3.302519
 H        -4.072232         0.562414        -2.873183
 H        -2.523421         0.442244        -3.711448
 H        -2.894117        -0.524834         0.571181
 H        -3.902160        -1.704984        -0.511896
 H        -1.639652        -1.962786        -1.880352
 H        -0.187334         2.256717         0.174699
 H         0.034120         1.339675        -1.243155
 H        -2.671147         1.633440        -0.196645
 H        -2.130210         2.153599        -1.586341
