19
Iteration:  3821charge 0 multiplicity 1
 C        -3.081093         0.009102        -2.869344
 C        -2.502976         0.058641        -1.428400
 C        -3.099905        -1.049730        -0.532540
 C        -1.702863        -1.266400        -1.174033
 O        -0.537813        -1.159995        -0.323143
 C         0.001921         0.084569         0.110682
 O         0.977846         0.042376         0.812053
 C        -0.523911         1.314208        -0.583126
 C        -2.058101         1.371307        -0.816402
 H        -2.829234        -0.946307        -3.323330
 H        -4.184570         0.214497        -2.975126
 H        -2.486071         0.717403        -3.449572
 H        -2.907094        -1.042841         0.532313
 H        -3.916762        -1.747165        -0.863728
 H        -1.375355        -2.046469        -1.843398
 H        -0.085839         2.222745        -0.093466
 H        -0.002764         1.282545        -1.709635
 H        -2.634595         1.439516         0.168557
 H        -2.245709         2.114212        -1.583102
