19
Iteration:  1480charge 0 multiplicity 1
 C        -2.935248         0.004042        -2.936533
 C        -2.495815        -0.080677        -1.511593
 C        -3.150738        -1.241198        -0.604908
 C        -1.707318        -1.241762        -1.088053
 O        -0.606281        -1.076905        -0.083587
 C         0.076083         0.122265        -0.006923
 O         1.118934         0.186111         0.522039
 C        -0.697378         1.409246        -0.259591
 C        -2.080960         1.238775        -0.897347
 H        -3.583929        -0.885090        -3.180555
 H        -3.635284         0.887311        -3.040946
 H        -2.088668         0.132235        -3.601702
 H        -3.154212        -1.091187         0.452502
 H        -3.660262        -2.076638        -0.930450
 H        -1.495351        -2.049402        -1.774325
 H        -0.838669         1.863429         0.633994
 H         0.019395         1.890392        -0.765477
 H        -2.939453         1.687657        -0.222340
 H        -2.152992         1.954892        -1.769787
