19
Iteration:  1385
 C        -2.948449         0.179472        -2.890301
 C        -2.536925        -0.069499        -1.431730
 C        -3.112098        -1.307213        -0.745238
 C        -1.621807        -1.254444        -0.998631
 O        -0.601957        -1.047603         0.037225
 C         0.025662         0.146047         0.002766
 O         1.002504         0.192157         0.658416
 C        -0.572827         1.274046        -0.778496
 C        -2.105992         1.194171        -0.700934
 H        -2.997251        -0.709697        -3.418580
 H        -3.964674         0.589644        -2.902939
 H        -2.276398         0.985132        -3.199930
 H        -3.411539        -1.347779         0.279042
 H        -3.655922        -1.858637        -1.461986
 H        -1.255918        -1.887642        -1.756812
 H        -0.137694         2.255402        -0.277827
 H        -0.392510         1.189937        -1.917916
 H        -2.311844         1.189426         0.305387
 H        -2.763428         1.920039        -1.098552
