19
Iteration:  4239charge 0 multiplicity 1
 C        -3.297496        -0.099754        -2.835811
 C        -2.432664        -0.074172        -1.502674
 C        -2.998327        -0.960850        -0.440348
 C        -1.686904        -1.257829        -1.111422
 O        -0.419031        -1.082338        -0.504929
 C         0.070295         0.105731         0.121864
 O         0.982980        -0.159799         0.860456
 C        -0.729420         1.486087        -0.246216
 C        -1.897981         1.394661        -1.173470
 H        -4.052053        -0.912966        -3.064980
 H        -3.997438         0.822128        -2.750474
 H        -2.625648        -0.094725        -3.769047
 H        -3.089038        -0.592344         0.587973
 H        -3.791780        -1.702653        -0.708307
 H        -1.525071        -2.098329        -1.723527
 H        -0.998100         1.786644         0.716031
 H        -0.081427         2.396799        -0.623772
 H        -2.718382         1.882294        -0.737694
 H        -1.689653         1.837724        -2.201655
