19
Iteration:  3837
 C        -3.064765         0.062921        -2.779200
 C        -2.462740        -0.040240        -1.443278
 C        -3.069266        -1.125321        -0.604711
 C        -1.672998        -1.201668        -1.166488
 O        -0.544286        -1.155636        -0.294794
 C         0.044070         0.036168         0.060100
 O         0.904186         0.132121         0.906189
 C        -0.509283         1.245333        -0.765706
 C        -2.034398         1.340622        -0.763599
 H        -3.220015        -0.961711        -3.211223
 H        -4.131626         0.512726        -2.541114
 H        -2.696354         0.850863        -3.491985
 H        -3.310095        -0.763501         0.411266
 H        -3.879339        -1.568884        -1.128448
 H        -1.660638        -1.836886        -2.087892
 H         0.008532         2.097094        -0.336386
 H        -0.154767         1.077681        -1.695997
 H        -2.306212         1.455417         0.273160
 H        -2.399473         2.281027        -1.253735
