19
Iteration:  2043
 C        -3.206670        -0.080808        -2.898276
 C        -2.479103        -0.016421        -1.456614
 C        -2.880660        -0.993219        -0.334534
 C        -1.643606        -1.247170        -1.128158
 O        -0.326606        -1.105627        -0.536985
 C        -0.024446         0.038653         0.123333
 O         0.829856         0.054372         0.992672
 C        -0.663174         1.329905        -0.436015
 C        -2.043678         1.360608        -1.174638
 H        -3.484392        -1.183173        -3.168774
 H        -4.235397         0.299908        -2.664542
 H        -2.656731         0.468465        -3.836153
 H        -2.518974        -0.887328         0.676576
 H        -3.792206        -1.659122        -0.502425
 H        -1.737097        -2.073124        -1.837742
 H        -0.604986         2.060456         0.376244
 H         0.035536         1.814832        -1.027043
 H        -2.782243         1.775157        -0.396545
 H        -2.199915         2.089492        -2.092827
