19
Iteration:  4102charge 0 multiplicity 1
 C        -2.989746        -0.044547        -2.875980
 C        -2.340604        -0.027457        -1.548976
 C        -3.088390        -0.819669        -0.460917
 C        -1.719392        -1.268972        -1.002097
 O        -0.610640        -1.179637        -0.226961
 C        -0.029388         0.083933         0.103578
 O         1.193855         0.079803         0.219281
 C        -1.009537         1.217041         0.115464
 C        -1.836497         1.309495        -1.141047
 H        -3.170976        -1.037376        -3.333089
 H        -3.852678         0.587494        -2.969226
 H        -2.210352         0.348307        -3.481921
 H        -3.150753        -0.423216         0.567458
 H        -3.924136        -1.520095        -0.674737
 H        -1.777058        -2.219056        -1.540622
 H        -1.774698         1.080892         0.907299
 H        -0.475929         2.145040         0.304278
 H        -2.671095         1.990465        -0.806784
 H        -1.377496         1.829810        -1.988282
