19
Iteration:    32
 C        -2.965198        -0.205505        -2.988511
 C        -2.533772        -0.022829        -1.520588
 C        -3.201913        -0.798577        -0.378279
 C        -1.872920        -1.196784        -0.896772
 O        -0.494979        -1.049567        -0.444517
 C         0.064573         0.102729         0.129094
 O         1.252781         0.126195         0.385722
 C        -1.025341         1.171402         0.142890
 C        -1.734551         1.200246        -1.179951
 H        -2.988891        -1.300153        -3.215099
 H        -3.999542         0.328154        -3.151281
 H        -2.134556         0.126205        -3.743098
 H        -3.210911        -0.118858         0.495475
 H        -4.175814        -1.188178        -0.589523
 H        -1.780615        -2.070175        -1.521968
 H        -1.746536         1.000448         0.800760
 H        -0.544360         2.182850         0.259046
 H        -2.557624         2.074910        -0.946908
 H        -0.972227         1.319006        -1.996053
