19
Iteration:  2828charge 0 multiplicity 1
 C        -2.564204        -0.023649        -2.999193
 C        -2.344646        -0.090917        -1.516793
 C        -3.196489        -0.946121        -0.496049
 C        -1.722024        -1.274645        -0.909944
 O        -0.755409        -1.073469         0.087242
 C        -0.018188         0.108782         0.027363
 O         1.150776         0.142552        -0.251461
 C        -1.076017         1.203930         0.274713
 C        -1.945070         1.297063        -1.011057
 H        -3.085914        -0.914243        -3.427873
 H        -3.316337         0.752573        -3.251759
 H        -1.667484         0.020026        -3.577145
 H        -3.233195        -0.588395         0.556818
 H        -4.019066        -1.562896        -0.714115
 H        -1.542794        -2.312309        -1.356414
 H        -1.609978         0.894141         1.127512
 H        -0.456844         2.111040         0.506516
 H        -2.858065         1.976754        -0.651205
 H        -1.364368         1.814142        -1.876329
