19
Iteration:  3210charge 0 multiplicity 1
 C        -2.828388        -0.141890        -3.010160
 C        -2.374457        -0.001921        -1.554359
 C        -3.111267        -0.763621        -0.394926
 C        -1.779787        -1.246979        -0.910944
 O        -0.510873        -1.238312        -0.217343
 C        -0.077890         0.036211         0.140849
 O         1.113535         0.235997         0.026247
 C        -1.138199         1.138438         0.319676
 C        -1.772262         1.345981        -1.152287
 H        -2.999108        -1.216262        -3.123324
 H        -3.647796         0.505378        -3.382160
 H        -2.022843         0.152341        -3.620378
 H        -3.381543        -0.342279         0.573821
 H        -4.008101        -1.418430        -0.658919
 H        -1.798627        -2.251224        -1.417706
 H        -1.869745         0.874692         1.054180
 H        -0.621345         2.141924         0.543064
 H        -2.500282         2.127588        -1.211912
 H        -1.025874         1.656813        -1.813953
