19
Iteration:  1058charge 0 multiplicity 1
 C        -3.026006        -0.014351        -2.910958
 C        -2.434113        -0.067152        -1.530278
 C        -3.025691        -1.171736        -0.531783
 C        -1.643601        -1.309007        -1.037656
 O        -0.679911        -1.097562        -0.060873
 C         0.044443         0.092650         0.023064
 O         1.181887         0.066303         0.421479
 C        -0.831726         1.404951        -0.110666
 C        -2.029975         1.386940        -1.078824
 H        -3.534340        -0.885424        -3.189954
 H        -3.797982         0.756401        -3.140419
 H        -2.251938         0.332746        -3.726815
 H        -3.129312        -0.990530         0.545704
 H        -3.811828        -1.722857        -0.933161
 H        -1.318822        -2.057581        -1.858347
 H        -1.118038         1.735280         0.879913
 H        -0.142359         2.212632        -0.334556
 H        -3.026102         1.918165        -0.764968
 H        -1.761888         1.914572        -1.964240
