19
Iteration:  4164charge 0 multiplicity 1
 C        -3.057412        -0.058303        -2.882687
 C        -2.386731        -0.124155        -1.579734
 C        -3.170242        -0.780703        -0.419335
 C        -1.797815        -1.281137        -0.966715
 O        -0.503500        -1.066027        -0.429154
 C         0.003636         0.084320         0.077333
 O         1.161000         0.082489         0.399957
 C        -1.015033         1.194931         0.166360
 C        -1.711816         1.275570        -1.186692
 H        -3.335472        -1.108312        -3.129101
 H        -3.966208         0.620114        -2.898734
 H        -2.442796         0.439061        -3.654281
 H        -3.051271        -0.509359         0.641458
 H        -3.926538        -1.514342        -0.735712
 H        -1.682567        -2.261979        -1.354363
 H        -1.760114         1.087402         0.947238
 H        -0.439519         2.260327         0.315833
 H        -2.497226         2.060218        -1.055982
 H        -1.010529         1.523036        -1.970951
