19
Iteration:  3549charge 0 multiplicity 1
 C        -3.166240        -0.013680        -2.958919
 C        -2.522596        -0.047627        -1.581544
 C        -3.058911        -0.974676        -0.426108
 C        -1.727364        -1.219473        -1.124847
 O        -0.457163        -1.136378        -0.454999
 C         0.044348         0.061033         0.131348
 O         0.978802        -0.001989         0.889609
 C        -0.526596         1.342861        -0.388957
 C        -2.037704         1.333423        -0.909209
 H        -3.436880        -1.024729        -3.234175
 H        -4.149630         0.512162        -2.795731
 H        -2.571950         0.378876        -3.725947
 H        -2.924823        -0.550395         0.562549
 H        -3.878824        -1.734355        -0.649285
 H        -1.582390        -1.990921        -1.889048
 H        -0.181548         2.282891         0.114023
 H         0.048920         1.351069        -1.344848
 H        -2.814406         1.560214        -0.096124
 H        -2.136543         2.227334        -1.636150
