19
Iteration:  1900
 C        -2.697114         0.266850        -2.901496
 C        -2.469771        -0.129176        -1.464694
 C        -3.241588        -1.210081        -0.634157
 C        -1.739073        -1.337204        -0.942667
 O        -0.619364        -1.119294        -0.015125
 C         0.041164         0.150216        -0.032533
 O         1.056943         0.281034         0.605876
 C        -0.686690         1.286699        -0.830508
 C        -2.165501         1.096277        -0.609260
 H        -2.158019        -0.405308        -3.529997
 H        -3.727230         0.313542        -3.112155
 H        -2.097769         1.192216        -2.918703
 H        -3.446440        -0.916211         0.362740
 H        -3.924383        -1.913675        -1.022295
 H        -1.473368        -2.029259        -1.794187
 H        -0.193811         2.250178        -0.826035
 H        -0.377277         1.068917        -1.893399
 H        -2.477353         1.106705         0.428912
 H        -2.852920         1.850623        -0.996326
