19
Iteration:   585charge 0 multiplicity 1
 C        -3.124312        -0.060897        -2.913097
 C        -2.460447        -0.041993        -1.523737
 C        -3.110604        -1.021735        -0.506104
 C        -1.739955        -1.279830        -1.034669
 O        -0.631181        -1.109785        -0.146222
 C         0.033071         0.067568         0.094853
 O         1.222306         0.143108         0.362745
 C        -0.859491         1.280875         0.069046
 C        -1.802909         1.371203        -1.218133
 H        -3.602409        -1.054919        -3.112706
 H        -3.739840         0.836187        -3.170600
 H        -2.224506        -0.022545        -3.725905
 H        -3.278065        -0.808018         0.527586
 H        -3.963075        -1.544497        -0.872059
 H        -1.476759        -2.173297        -1.777082
 H        -1.492537         1.169897         0.941104
 H        -0.208275         1.971166         0.262026
 H        -2.646054         2.114798        -0.937868
 H        -1.270357         1.784131        -2.065185
