19
Iteration:  4920
 C        -2.741221        -0.033238        -2.920853
 C        -2.413195        -0.012129        -1.466379
 C        -3.162885        -0.863073        -0.414799
 C        -1.803904        -1.204750        -0.929939
 O        -0.608047        -1.260146        -0.032327
 C        -0.059936        -0.006257         0.031614
 O         1.166911         0.195353         0.014150
 C        -1.087583         1.134750         0.107016
 C        -1.735761         1.382027        -1.175247
 H        -3.523122        -0.694341        -3.158210
 H        -3.178145         0.948770        -3.175948
 H        -1.815619        -0.187555        -3.433311
 H        -3.242165        -0.527607         0.634839
 H        -3.989337        -1.535598        -0.654457
 H        -1.718030        -2.049066        -1.543222
 H        -1.979554         0.945291         0.683359
 H        -0.727893         2.072600         0.531502
 H        -2.706528         2.081749        -1.117115
 H        -1.226313         1.797344        -2.109601
