19
Iteration:   363charge 0 multiplicity 1
 C        -3.243215        -0.256107        -2.779932
 C        -2.443452         0.010577        -1.562658
 C        -2.908023        -0.739110        -0.345160
 C        -1.619706        -1.167696        -1.170160
 O        -0.381405        -1.130778        -0.581728
 C        -0.008531         0.008229         0.049093
 O         0.836407        -0.057256         0.922871
 C        -0.731070         1.326168        -0.275439
 C        -1.921238         1.406090        -1.185940
 H        -3.258136        -1.404872        -2.904951
 H        -4.321316        -0.133256        -2.586844
 H        -2.932845         0.335326        -3.650536
 H        -2.589294        -0.368139         0.691274
 H        -3.601699        -1.648978        -0.352743
 H        -1.765512        -2.004962        -1.778615
 H        -1.059779         1.699801         0.798643
 H        -0.001812         2.009782        -0.538205
 H        -2.768847         1.986880        -0.747114
 H        -1.698952         2.062401        -1.999491
