19
Iteration:  3868
 C        -3.180983         0.319516        -2.841638
 C        -2.560565        -0.039767        -1.421854
 C        -2.960384        -1.293222        -0.548103
 C        -1.649065        -1.306115        -1.222641
 O        -0.603962        -1.127697        -0.175523
 C         0.080552         0.091628        -0.026717
 O         0.748144         0.245828         0.998628
 C        -0.407628         1.173142        -0.969281
 C        -1.934635         1.214584        -0.699251
 H        -3.705785        -0.486393        -3.410339
 H        -3.941065         1.191345        -2.590204
 H        -2.378778         0.775588        -3.456779
 H        -2.994631        -1.037771         0.516120
 H        -3.703855        -1.855150        -1.011741
 H        -1.380076        -2.079754        -1.987255
 H         0.195655         2.063183        -0.600097
 H        -0.081497         0.986825        -2.072811
 H        -1.873028         1.058212         0.402798
 H        -2.329702         2.162708        -1.035700
