19
Iteration:  3160charge 0 multiplicity 1
 C        -3.129702        -0.108943        -2.918542
 C        -2.486902        -0.046043        -1.530005
 C        -3.077883        -0.867077        -0.467844
 C        -1.714591        -1.268005        -0.928484
 O        -0.393949        -1.112699        -0.391659
 C         0.013310         0.071503         0.111526
 O         1.159294         0.093463         0.569976
 C        -0.975466         1.312804        -0.013787
 C        -1.838284         1.279505        -1.219559
 H        -3.931621        -0.865472        -2.984348
 H        -3.547358         0.908579        -3.069566
 H        -2.324404        -0.249466        -3.803149
 H        -3.381316        -0.660114         0.556519
 H        -3.928932        -1.521632        -0.787307
 H        -1.552622        -2.177232        -1.606565
 H        -1.776901         1.074215         0.756910
 H        -0.498474         2.238971         0.079102
 H        -2.686507         2.061292        -1.041460
 H        -1.312928         1.600311        -2.200671
