19
Iteration:  2888
 C        -2.920591        -0.141056        -3.029145
 C        -2.479317        -0.060498        -1.537482
 C        -3.130003        -0.855237        -0.467576
 C        -1.699525        -1.288028        -0.972888
 O        -0.640007        -1.148986        -0.131439
 C         0.028758         0.157986        -0.023231
 O         1.213736         0.113912         0.252945
 C        -1.009846         1.245100         0.155875
 C        -1.853659         1.368085        -1.094649
 H        -2.832514        -1.173589        -3.256302
 H        -3.928076         0.197717        -3.163875
 H        -2.339969         0.518614        -3.706032
 H        -3.045617        -0.610726         0.585106
 H        -3.928518        -1.584978        -0.759387
 H        -1.663377        -2.139126        -1.570113
 H        -1.613281         0.948136         1.122370
 H        -0.464272         2.127635         0.489595
 H        -2.578127         2.094289        -1.054896
 H        -1.237544         1.656015        -1.856600
