19
Iteration:  4440
 C        -3.098818        -0.105420        -2.836663
 C        -2.451146         0.028541        -1.544319
 C        -3.175128        -0.995421        -0.462040
 C        -1.786846        -1.174550        -1.014620
 O        -0.501699        -1.137434        -0.369045
 C         0.052158         0.080519         0.081864
 O         1.195237        -0.039239         0.579734
 C        -0.829707         1.307841        -0.068850
 C        -1.870992         1.394511        -1.213805
 H        -3.309726        -1.182558        -3.191037
 H        -3.985055         0.596977        -2.783426
 H        -2.457461         0.393947        -3.616769
 H        -3.199119        -0.625988         0.537926
 H        -3.948154        -1.575092        -0.994451
 H        -1.627067        -2.104964        -1.509919
 H        -1.491163         1.236086         0.803212
 H        -0.344995         2.214659         0.165783
 H        -2.669270         2.051803        -0.830576
 H        -1.353584         1.969948        -2.101972
