19
Iteration:   188charge 0 multiplicity 1
 C        -2.936944        -0.104035        -3.005223
 C        -2.502189        -0.020554        -1.561645
 C        -3.135708        -0.869279        -0.431027
 C        -1.779540        -1.253454        -0.967014
 O        -0.496278        -1.172998        -0.265974
 C         0.036368         0.012019         0.054987
 O         1.175738         0.035755         0.441694
 C        -0.820076         1.374917        -0.031011
 C        -2.058955         1.358738        -1.060666
 H        -2.838595        -1.129618        -3.448824
 H        -3.938797         0.281650        -3.053941
 H        -2.271888         0.458392        -3.666239
 H        -2.990866        -0.543152         0.663615
 H        -4.069615        -1.451010        -0.517610
 H        -1.704366        -2.228208        -1.555275
 H        -1.077298         1.623326         0.892689
 H        -0.195022         2.106961        -0.422347
 H        -2.952711         1.843810        -0.617065
 H        -1.687250         1.835648        -1.918384
