19
Iteration:  3862
 C        -3.189193         0.311614        -2.848822
 C        -2.598317        -0.048713        -1.429323
 C        -3.001340        -1.208003        -0.581705
 C        -1.600796        -1.280098        -1.171948
 O        -0.552866        -1.125521        -0.169741
 C         0.068037         0.047026        -0.028632
 O         0.744366         0.211891         0.968307
 C        -0.407375         1.205604        -0.943579
 C        -1.925644         1.218333        -0.695595
 H        -3.567883        -0.654622        -3.222660
 H        -3.980777         0.991017        -2.802088
 H        -2.473459         0.797419        -3.536705
 H        -2.849797        -1.257055         0.514325
 H        -3.709294        -1.959576        -1.101523
 H        -1.483792        -2.103995        -1.849337
 H         0.088991         2.056848        -0.565866
 H        -0.155504         1.055247        -1.963436
 H        -1.974859         1.134169         0.385554
 H        -2.337918         2.198734        -1.070832
