19
Iteration:   736charge 0 multiplicity 1
 C        -3.285831         0.094475        -2.822530
 C        -2.565035        -0.018507        -1.429100
 C        -3.064208        -1.225588        -0.590045
 C        -1.555686        -1.253141        -1.244277
 O        -0.512394        -1.119321        -0.253377
 C         0.050006         0.083474         0.094026
 O         0.811678         0.198773         1.038972
 C        -0.383533         1.293890        -0.836144
 C        -1.935757         1.280269        -0.821342
 H        -3.876335        -0.817373        -3.071320
 H        -4.137342         0.768451        -2.782956
 H        -2.629841         0.469458        -3.557732
 H        -3.002178        -1.128566         0.416973
 H        -3.708966        -1.940837        -0.999304
 H        -1.448922        -2.001906        -2.097206
 H         0.090642         2.150959        -0.365139
 H         0.113362         1.175250        -1.977955
 H        -2.286894         1.443902         0.191854
 H        -2.250898         2.140131        -1.361959
