19
Iteration:   867
 C        -3.042271         0.031152        -2.924961
 C        -2.522568        -0.035093        -1.426370
 C        -3.080873        -1.150511        -0.642983
 C        -1.614174        -1.233680        -1.086196
 O        -0.630175        -1.141711        -0.063190
 C         0.074475         0.097020         0.049720
 O         1.127833         0.101695         0.608021
 C        -0.657885         1.381361        -0.483258
 C        -2.147479         1.279153        -0.882217
 H        -3.309662        -1.060049        -3.378423
 H        -3.867765         0.805097        -3.058146
 H        -2.211272         0.447365        -3.520288
 H        -3.220016        -1.173806         0.447474
 H        -3.723219        -1.865182        -1.075083
 H        -1.352733        -1.899074        -1.932221
 H        -0.676426         2.055340         0.379667
 H         0.100392         1.834238        -1.104046
 H        -2.699920         1.471119         0.041247
 H        -2.337908         2.176025        -1.599746
