19
Iteration:  4128
 C        -3.065218        -0.104346        -3.001890
 C        -2.479101         0.071157        -1.573278
 C        -3.197390        -0.765472        -0.418866
 C        -1.775996        -1.203049        -1.009593
 O        -0.448557        -1.252054        -0.264267
 C         0.022819         0.080406         0.049385
 O         1.184361         0.192493         0.273142
 C        -1.075582         1.108385         0.258294
 C        -1.697055         1.292285        -1.148835
 H        -3.079584        -1.116043        -3.395875
 H        -4.114089         0.265470        -3.026588
 H        -2.349774         0.415637        -3.755012
 H        -3.024638        -0.546471         0.626080
 H        -3.986844        -1.490287        -0.374529
 H        -1.966178        -2.208873        -1.422498
 H        -1.723164         0.909767         1.118724
 H        -0.500785         1.982089         0.494572
 H        -2.184609         2.155226        -1.264745
 H        -0.851268         1.424454        -1.863771
