19
Iteration:   442charge 0 multiplicity 1
 C        -3.172196         0.025348        -2.812666
 C        -2.454119        -0.046607        -1.541542
 C        -2.996564        -1.085806        -0.462593
 C        -1.652976        -1.231156        -1.113272
 O        -0.533261        -1.205538        -0.180389
 C        -0.003606         0.011797         0.098930
 O         1.093958         0.122275         0.643274
 C        -0.761726         1.322751        -0.267542
 C        -1.966081         1.427157        -1.242690
 H        -3.884352        -0.749062        -3.018491
 H        -3.678645         0.942164        -2.782799
 H        -2.498445        -0.138547        -3.680203
 H        -3.169492        -0.866050         0.569686
 H        -3.803009        -1.683745        -0.892520
 H        -1.620788        -2.174544        -1.670052
 H        -1.083985         1.723429         0.770823
 H         0.006452         1.938244        -0.540064
 H        -2.775098         1.949253        -0.792330
 H        -1.595266         1.891938        -2.116914
