19
Iteration:  3014
 C        -3.501408        -0.169947        -2.553517
 C        -2.414587        -0.039765        -1.532634
 C        -2.736832        -0.887266        -0.273426
 C        -1.561987        -1.230555        -1.238569
 O        -0.235460        -0.978715        -0.856555
 C         0.061083         0.086977         0.089117
 O         0.458523        -0.080154         1.206882
 C        -0.746371         1.359695        -0.256368
 C        -1.655346         1.301065        -1.489114
 H        -3.953162        -1.195791        -2.620477
 H        -4.339732         0.475270        -2.212031
 H        -3.082097         0.035938        -3.538834
 H        -2.571101        -0.453464         0.700697
 H        -3.679801        -1.432024        -0.255058
 H        -1.536565        -2.096673        -1.887164
 H        -1.310264         1.460118         0.629668
 H        -0.039573         2.214758        -0.427866
 H        -2.334616         1.973257        -1.308572
 H        -1.280261         1.503575        -2.481636
