19
Iteration:  4845
 C        -3.094558        -0.116281        -2.932112
 C        -2.532680         0.037986        -1.555914
 C        -3.042376        -0.803366        -0.336697
 C        -1.718244        -1.133624        -1.037414
 O        -0.415387        -1.250213        -0.324510
 C         0.019710         0.044135         0.000078
 O         1.069815         0.008919         0.632679
 C        -0.917356         1.224789        -0.064421
 C        -1.845242         1.402559        -1.279860
 H        -3.071004        -1.135122        -3.259804
 H        -4.130077         0.119132        -2.781059
 H        -2.602479         0.524553        -3.688756
 H        -2.871471        -0.545031         0.731552
 H        -3.862727        -1.517680        -0.450734
 H        -1.782268        -1.984739        -1.654434
 H        -1.521304         1.069085         0.954179
 H        -0.395727         2.193706         0.155309
 H        -2.526484         2.236795        -1.163744
 H        -1.355545         1.607822        -2.148586
