19
Iteration:   677charge 0 multiplicity 1
 C        -3.089154        -0.017116        -2.928540
 C        -2.500761        -0.017099        -1.486497
 C        -3.009457        -0.993875        -0.387451
 C        -1.713754        -1.181334        -1.094219
 O        -0.467522        -1.172273        -0.356529
 C         0.027999         0.041986         0.131108
 O         1.041161        -0.002818         0.781704
 C        -0.664874         1.335453        -0.439644
 C        -2.103708         1.354958        -1.040669
 H        -2.912768        -1.078935        -3.187202
 H        -4.146075         0.337354        -3.118025
 H        -2.387259         0.473565        -3.704287
 H        -3.058650        -0.559568         0.681426
 H        -3.865318        -1.711661        -0.554481
 H        -1.567268        -1.965708        -1.722409
 H        -0.670827         2.155166         0.327203
 H        -0.040525         1.725653        -1.260347
 H        -2.808719         1.575345        -0.291001
 H        -2.297279         2.153999        -1.862706
