19
Iteration:  4966charge 0 multiplicity 1
 C        -2.773419        -0.149825        -3.095871
 C        -2.392886        -0.035252        -1.574223
 C        -3.290306        -0.836288        -0.491656
 C        -1.788970        -1.209509        -0.898089
 O        -0.659146        -1.115907        -0.092738
 C         0.054738         0.120058         0.182915
 O         1.214375         0.085600        -0.029142
 C        -0.871955         1.218308         0.266660
 C        -1.913083         1.247398        -1.031438
 H        -3.454831        -0.934930        -3.199703
 H        -3.303159         0.694468        -3.377855
 H        -1.850253        -0.223544        -3.671357
 H        -3.556183        -0.326765         0.435143
 H        -4.212941        -1.391599        -0.833824
 H        -1.646974        -2.069346        -1.598384
 H        -1.606385         1.076517         1.134029
 H        -0.389010         2.179035         0.363199
 H        -2.862234         1.875354        -0.723206
 H        -1.507884         1.930674        -1.736068
