19
Iteration:  4746charge 0 multiplicity 1
 C        -3.466315        -0.094269        -2.602320
 C        -2.458883         0.056196        -1.517549
 C        -2.627652        -0.843544        -0.274202
 C        -1.607331        -1.247764        -1.249307
 O        -0.257407        -1.129998        -0.756828
 C        -0.220065         0.048698         0.123274
 O         0.628278        -0.061947         1.028048
 C        -0.876370         1.311861        -0.156960
 C        -1.606876         1.355652        -1.467751
 H        -4.173959        -0.912551        -2.475492
 H        -3.970599         0.873097        -2.732586
 H        -2.869181        -0.322913        -3.511009
 H        -2.207224        -0.521955         0.671215
 H        -3.507366        -1.503789        -0.181654
 H        -1.802373        -2.157774        -1.902547
 H        -1.209216         1.806340         0.832043
 H         0.123905         1.820785        -0.296102
 H        -2.187812         2.216616        -1.533480
 H        -0.998900         1.313942        -2.323111
