19
Iteration:  3226
 C        -2.725169        -0.129361        -2.933388
 C        -2.277680        -0.052912        -1.470780
 C        -3.188732        -0.779537        -0.529645
 C        -1.786921        -1.243654        -0.861981
 O        -0.584729        -1.242280        -0.099517
 C        -0.050049         0.037205         0.015533
 O         1.125318         0.244894        -0.057381
 C        -1.151726         1.166630         0.241127
 C        -1.816006         1.329566        -1.066416
 H        -2.937779        -1.109036        -3.410153
 H        -3.682963         0.307031        -2.785244
 H        -1.931976         0.381098        -3.612071
 H        -3.261102        -0.197065         0.402080
 H        -4.045612        -1.322845        -0.833087
 H        -1.782542        -2.028251        -1.593072
 H        -1.923711         0.825153         0.993905
 H        -0.577775         1.961980         0.575263
 H        -2.748511         2.089643        -0.972629
 H        -1.022364         1.700787        -1.847965
