19
Iteration:  3555charge 0 multiplicity 1
 C        -3.185490        -0.027168        -2.951481
 C        -2.491978        -0.033088        -1.557401
 C        -3.057981        -0.993238        -0.440599
 C        -1.721854        -1.176213        -1.161507
 O        -0.462405        -1.098968        -0.410993
 C         0.011978         0.069556         0.162262
 O         1.039935        -0.007228         0.857766
 C        -0.593077         1.286733        -0.370585
 C        -2.046815         1.286989        -0.962251
 H        -3.533486        -1.020594        -3.394033
 H        -4.035471         0.666993        -2.974263
 H        -2.458553         0.515936        -3.703130
 H        -2.895536        -0.528686         0.537068
 H        -3.891358        -1.635728        -0.368672
 H        -1.698095        -2.003701        -1.893503
 H        -0.273005         2.112729         0.224959
 H         0.101464         1.363881        -1.275956
 H        -2.650910         1.737655        -0.126276
 H        -2.106026         2.106739        -1.636052
