19
Iteration:   683
 C        -3.111936        -0.035200        -2.925353
 C        -2.471123        -0.011374        -1.505612
 C        -2.986088        -1.028881        -0.398880
 C        -1.682053        -1.184239        -1.066531
 O        -0.456415        -1.189883        -0.334146
 C        -0.005706         0.054011         0.132533
 O         1.019709        -0.032417         0.794038
 C        -0.649940         1.400723        -0.462420
 C        -2.129267         1.373810        -1.057844
 H        -3.135978        -1.097399        -3.161022
 H        -4.095896         0.392839        -3.116590
 H        -2.539031         0.618228        -3.582819
 H        -3.012525        -0.613003         0.580925
 H        -3.864115        -1.657994        -0.555826
 H        -1.612072        -1.997187        -1.936956
 H        -0.484119         2.213595         0.225059
 H         0.086935         1.656891        -1.335504
 H        -2.885875         1.617677        -0.184246
 H        -2.257460         2.174255        -1.720800
