19
Iteration:   801charge 0 multiplicity 1
 C        -2.996491         0.242868        -2.845360
 C        -2.533067        -0.089804        -1.385247
 C        -3.081023        -1.259904        -0.529101
 C        -1.653375        -1.241236        -1.088878
 O        -0.534924        -1.182806        -0.273539
 C         0.045840         0.102988        -0.106136
 O         0.709305         0.305106         0.905481
 C        -0.442217         1.199444        -0.915443
 C        -1.959692         1.239745        -0.602519
 H        -2.966728        -0.751396        -3.468389
 H        -4.098565         0.487711        -2.781356
 H        -2.468812         1.092794        -3.252979
 H        -3.303910        -1.244243         0.474936
 H        -3.538276        -2.002949        -1.107654
 H        -1.386109        -1.969160        -1.936489
 H         0.055834         2.086037        -0.571072
 H        -0.309172         1.211422        -2.035040
 H        -2.110024         1.260250         0.446554
 H        -2.459158         2.132976        -1.040177
