19
Iteration:   964
 C        -2.656769        -0.057729        -3.014460
 C        -2.476185        -0.094360        -1.461218
 C        -3.256582        -1.064050        -0.557848
 C        -1.799859        -1.376272        -0.923295
 O        -0.635543        -1.160417        -0.114096
 C        -0.004477         0.074886         0.030178
 O         1.192390         0.140708         0.186375
 C        -0.793421         1.499349        -0.079921
 C        -2.115315         1.324288        -0.857021
 H        -2.559255        -1.090435        -3.443521
 H        -3.607247         0.340683        -3.407196
 H        -1.930921         0.640102        -3.319301
 H        -3.290787        -0.695677         0.460297
 H        -4.021738        -1.715528        -0.757690
 H        -1.507581        -2.135491        -1.695241
 H        -0.862924         1.852299         0.924016
 H        -0.052486         2.196591        -0.516128
 H        -2.855234         1.639232        -0.186335
 H        -2.217276         2.191131        -1.704939
