19
Iteration:  2935charge 0 multiplicity 1
 C        -3.239818        -0.114670        -2.830335
 C        -2.475648        -0.060473        -1.588550
 C        -3.034862        -0.850053        -0.400768
 C        -1.743590        -1.294610        -1.083964
 O        -0.289088        -1.129881        -0.502094
 C         0.006349         0.027807         0.074616
 O         1.001176         0.164123         0.758407
 C        -0.909311         1.254755        -0.031709
 C        -1.816242         1.311477        -1.239626
 H        -3.716925        -1.097741        -2.984471
 H        -3.903234         0.790300        -2.978244
 H        -2.535727         0.098698        -3.614738
 H        -3.007198        -0.345918         0.589596
 H        -3.916519        -1.371158        -0.731151
 H        -1.718713        -2.322328        -1.620146
 H        -1.344400         1.346198         0.939058
 H        -0.129600         2.108990         0.025663
 H        -2.493821         2.032555        -1.203094
 H        -1.286603         1.506772        -2.168580
