19
Iteration:  3987charge 0 multiplicity 1
 C        -3.080442         0.044521        -2.912115
 C        -2.558515         0.010741        -1.493769
 C        -3.095528        -0.984299        -0.557240
 C        -1.699451        -1.229306        -1.046611
 O        -0.513668        -1.203039        -0.224793
 C         0.092690         0.033231         0.018218
 O         1.113519         0.079138         0.699545
 C        -0.591996         1.277499        -0.343960
 C        -2.149887         1.318045        -0.964125
 H        -2.994054        -0.942049        -3.291845
 H        -4.128145         0.297496        -3.030671
 H        -2.408275         0.562600        -3.596551
 H        -3.327337        -0.705916         0.426624
 H        -3.796389        -1.671419        -0.942129
 H        -1.678304        -2.025525        -1.818070
 H        -0.385191         2.054199         0.451118
 H         0.197779         1.693162        -1.168851
 H        -2.928746         1.623865        -0.092085
 H        -2.371515         2.032323        -1.776534
