19
Iteration:   269charge 0 multiplicity 1
 C        -3.475260        -0.035951        -2.691672
 C        -2.384691        -0.063191        -1.597188
 C        -2.832126        -0.822329        -0.344642
 C        -1.546714        -1.300107        -1.202520
 O        -0.343674        -1.111913        -0.553337
 C        -0.135138         0.036586         0.171372
 O         0.906037         0.095974         0.777924
 C        -1.011264         1.240033         0.002996
 C        -1.633726         1.248423        -1.397738
 H        -4.284432        -0.725124        -2.532640
 H        -4.013547         0.953092        -2.727801
 H        -2.983987        -0.035856        -3.721870
 H        -2.651747        -0.508820         0.702709
 H        -3.764000        -1.413450        -0.569256
 H        -1.495787        -2.172764        -1.776561
 H        -1.569366         1.439899         0.768475
 H        -0.211464         2.095018        -0.044730
 H        -2.185170         2.174491        -1.608851
 H        -0.830730         1.388117        -2.219874
