19
Iteration:  2342charge 0 multiplicity 1
 C        -2.727483        -0.099453        -2.932767
 C        -2.370115        -0.042217        -1.489633
 C        -3.161650        -0.949388        -0.525965
 C        -1.718457        -1.268940        -0.992935
 O        -0.648892        -1.175684        -0.018230
 C        -0.051360         0.143834         0.017410
 O         1.150301         0.121487        -0.041693
 C        -1.048506         1.302058         0.202129
 C        -1.922163         1.341188        -1.002896
 H        -2.794631        -1.135835        -3.324283
 H        -3.605205         0.486969        -3.139216
 H        -1.838529         0.269938        -3.481735
 H        -3.187272        -0.717721         0.536619
 H        -3.984908        -1.536906        -0.855856
 H        -1.626223        -2.168748        -1.610321
 H        -1.557824         1.093423         1.237733
 H        -0.548642         2.300534         0.123990
 H        -2.754060         2.004712        -0.826874
 H        -1.354004         1.732483        -1.863066
