19
Iteration:   562
 C        -3.055264        -0.071820        -2.864364
 C        -2.391597        -0.062451        -1.523345
 C        -3.126692        -0.825006        -0.528346
 C        -1.735407        -1.242561        -0.924383
 O        -0.515130        -1.163177        -0.273774
 C        -0.016083         0.101850         0.104072
 O         1.157450         0.132699         0.285225
 C        -1.045164         1.300555         0.138913
 C        -1.765825         1.188986        -1.185387
 H        -3.467902        -1.107233        -3.201080
 H        -3.788684         0.759500        -2.837621
 H        -2.317094         0.310815        -3.725902
 H        -3.224329        -0.548963         0.491932
 H        -3.828372        -1.531918        -0.741201
 H        -1.732012        -2.127055        -1.669179
 H        -1.623971         1.040956         0.973948
 H        -0.595206         2.194314         0.311221
 H        -2.358441         2.176325        -1.371777
 H        -0.927908         1.232811        -1.872975
