19
Iteration:   762
 C        -3.135639         0.218915        -2.712370
 C        -2.453284        -0.027347        -1.394743
 C        -2.969267        -1.232087        -0.591457
 C        -1.519834        -1.215169        -1.173396
 O        -0.538898        -1.112583        -0.228628
 C        -0.007725         0.081246         0.010018
 O         0.690363         0.232538         1.016161
 C        -0.479891         1.160843        -1.014975
 C        -1.982764         1.189491        -0.791890
 H        -3.737291        -0.469524        -3.213597
 H        -3.875914         0.915436        -2.313617
 H        -2.529916         0.788317        -3.482959
 H        -2.996278        -1.098146         0.589867
 H        -3.633453        -2.001624        -1.129755
 H        -1.417797        -1.782931        -2.038852
 H         0.114772         2.104633        -0.899289
 H        -0.304546         0.756090        -2.013357
 H        -2.295823         1.244998         0.333568
 H        -2.398344         2.100404        -1.236354
