19
Iteration:  4755charge 0 multiplicity 1
 C        -3.457056        -0.095488        -2.603196
 C        -2.533156         0.063160        -1.499926
 C        -2.639611        -0.867253        -0.282965
 C        -1.593078        -1.160436        -1.361464
 O        -0.288890        -1.142168        -0.703013
 C        -0.044176         0.029183         0.145443
 O         0.638487        -0.038573         1.079513
 C        -0.841021         1.277695        -0.201300
 C        -1.669543         1.265197        -1.445042
 H        -4.316857        -0.769822        -2.558112
 H        -3.993282         0.837249        -2.825179
 H        -3.005521        -0.293341        -3.518150
 H        -2.358186        -0.305983         0.598583
 H        -3.609005        -1.356145        -0.112044
 H        -1.675593        -2.110853        -2.006206
 H        -1.387376         1.698935         0.732751
 H         0.001922         2.072361        -0.417578
 H        -2.160570         2.267599        -1.572979
 H        -0.983559         1.284924        -2.210035
