19
Iteration:  2000
 C        -3.335352         0.026684        -2.826172
 C        -2.458890        -0.053466        -1.611467
 C        -2.992013        -1.205612        -0.548075
 C        -1.610276        -1.281115        -1.187006
 O        -0.525127        -1.090156        -0.232312
 C         0.052261         0.113823         0.115520
 O         0.989524         0.161906         0.943491
 C        -0.580848         1.359247        -0.509706
 C        -1.998892         1.288382        -1.067936
 H        -3.897660        -0.991731        -2.869633
 H        -4.009086         0.920687        -2.799040
 H        -2.510624         0.139318        -3.692979
 H        -3.016315        -1.092854         0.543124
 H        -3.786711        -1.932868        -0.877525
 H        -1.243596        -1.915062        -2.015598
 H        -0.459096         2.131690         0.268504
 H         0.266713         1.547614        -1.259545
 H        -2.723746         1.461786        -0.190324
 H        -2.186007         2.195710        -1.704134
