19
Iteration:  3851charge 0 multiplicity 1
 C        -3.182360         0.206612        -2.794231
 C        -2.514723         0.034862        -1.427658
 C        -3.049789        -1.135224        -0.625375
 C        -1.609357        -1.194885        -1.119599
 O        -0.517784        -1.182449        -0.215641
 C         0.041664         0.069149        -0.022885
 O         0.785910         0.157278         0.923553
 C        -0.412855         1.213669        -0.859843
 C        -1.963089         1.204735        -0.715796
 H        -3.347322        -0.772012        -3.277020
 H        -4.110374         0.657285        -2.780131
 H        -2.457675         0.637253        -3.505395
 H        -3.217333        -1.099140         0.486894
 H        -3.742175        -1.946385        -1.064743
 H        -1.303883        -1.920845        -1.864043
 H        -0.017478         2.126220        -0.517000
 H        -0.211776         1.116594        -1.911916
 H        -2.396349         1.286861         0.260465
 H        -2.428699         2.117878        -1.200025
