19
Iteration:  3137charge 0 multiplicity 1
 C        -3.242332        -0.073128        -2.899437
 C        -2.491327        -0.065438        -1.572933
 C        -2.915102        -0.953093        -0.374124
 C        -1.664604        -1.225436        -1.154172
 O        -0.460433        -1.132708        -0.407704
 C         0.021950         0.053755         0.065113
 O         1.019459         0.104342         0.814125
 C        -0.828102         1.327131        -0.104700
 C        -1.874124         1.309647        -1.250019
 H        -3.889412        -0.951362        -2.801178
 H        -3.876370         0.832585        -2.967263
 H        -2.644519        -0.087962        -3.922386
 H        -2.892483        -0.528988         0.639031
 H        -3.822498        -1.652411        -0.325376
 H        -1.560781        -2.213583        -1.737408
 H        -1.345538         1.462537         0.887361
 H        -0.037715         2.023792        -0.286333
 H        -2.777611         2.061046        -1.114787
 H        -1.391555         1.612371        -2.237193
