19
Iteration:  2691charge 0 multiplicity 1
 C        -3.225232        -0.166560        -2.895930
 C        -2.431408        -0.049852        -1.592233
 C        -3.065188        -0.825867        -0.433077
 C        -1.716686        -1.308826        -1.093089
 O        -0.466784        -1.120623        -0.400390
 C         0.014916         0.089450         0.118166
 O         1.104278         0.156693         0.625881
 C        -0.900518         1.292717         0.021173
 C        -1.771413         1.311247        -1.220713
 H        -3.317695        -1.232726        -3.179501
 H        -4.227158         0.212350        -2.757596
 H        -2.541469         0.180593        -3.727344
 H        -2.929144        -0.478865         0.676425
 H        -3.887632        -1.484731        -0.709242
 H        -1.668718        -2.305399        -1.679879
 H        -1.603391         1.192700         0.867140
 H        -0.344077         2.203181         0.290522
 H        -2.741769         1.954765        -1.043958
 H        -1.008870         1.664305        -2.048627
