19
Iteration:  4201charge 0 multiplicity 1
 C        -3.180957        -0.070328        -2.922595
 C        -2.523295         0.026371        -1.534083
 C        -2.974863        -0.883617        -0.361376
 C        -1.679844        -1.180753        -1.132982
 O        -0.496250        -1.162154        -0.366363
 C         0.003046        -0.064587         0.158745
 O         1.108540         0.116778         0.612426
 C        -0.883282         1.195738        -0.106297
 C        -1.859476         1.344186        -1.192479
 H        -3.838067        -0.919387        -3.069206
 H        -3.721635         0.819733        -3.124272
 H        -2.363393        -0.155455        -3.642269
 H        -2.793257        -0.599299         0.667378
 H        -3.741922        -1.645809        -0.408017
 H        -1.651248        -1.989611        -1.923600
 H        -1.513553         1.420288         0.841184
 H        -0.165625         1.935757        -0.125642
 H        -2.661345         2.187744        -0.854653
 H        -1.382377         1.850683        -2.054763
