19
Iteration:  2460charge 0 multiplicity 1
 C        -3.242315        -0.117768        -2.904608
 C        -2.453538        -0.026232        -1.623762
 C        -2.913026        -0.989386        -0.367167
 C        -1.701386        -1.187377        -1.134529
 O        -0.485405        -1.113174        -0.368223
 C         0.009733         0.088037         0.148722
 O         1.068773         0.125621         0.735086
 C        -0.835860         1.314263        -0.083938
 C        -1.906134         1.259769        -1.265269
 H        -3.926755        -1.018468        -2.913640
 H        -3.874365         0.723795        -3.011201
 H        -2.644202        -0.309649        -3.840475
 H        -2.759373        -0.696652         0.666238
 H        -3.772740        -1.557377        -0.608488
 H        -1.582210        -2.029533        -1.770414
 H        -1.370102         1.378689         0.828048
 H        -0.006221         2.149222        -0.078127
 H        -2.723825         1.993871        -1.050255
 H        -1.382559         1.659176        -2.170969
