19
Iteration:  1878
 C        -2.725481         0.167862        -2.963854
 C        -2.576271        -0.051273        -1.396625
 C        -3.151270        -1.274468        -0.662103
 C        -1.647621        -1.263281        -0.959174
 O        -0.694513        -1.038058         0.032658
 C         0.017401         0.116643        -0.013916
 O         1.083432         0.196859         0.516647
 C        -0.646867         1.246920        -0.746946
 C        -2.186904         1.211396        -0.636848
 H        -2.346073        -0.683671        -3.473505
 H        -3.746529         0.267524        -3.188155
 H        -2.094251         1.023305        -3.252240
 H        -3.514879        -1.208214         0.320353
 H        -3.623263        -2.057403        -1.180498
 H        -1.379771        -2.023908        -1.733426
 H        -0.235314         2.128646        -0.239079
 H        -0.249536         1.520632        -1.740604
 H        -2.508343         1.192409         0.392507
 H        -2.753451         2.045011        -0.976092
