19
Iteration:  1196
 C        -3.388947        -0.064229        -2.798151
 C        -2.458292        -0.062109        -1.561388
 C        -2.814528        -1.084886        -0.428164
 C        -1.596070        -1.217512        -1.196173
 O        -0.374785        -1.124617        -0.398565
 C         0.009942         0.060895         0.136955
 O         0.951420         0.030898         0.937337
 C        -0.847287         1.404133        -0.274264
 C        -1.923069         1.352734        -1.326358
 H        -4.222334        -0.848565        -2.744187
 H        -3.962250         0.874495        -2.638926
 H        -2.899808         0.164990        -3.693474
 H        -2.702969        -0.668133         0.626871
 H        -3.744384        -1.672222        -0.575055
 H        -1.279111        -1.967501        -1.982251
 H        -1.280258         1.644528         0.775709
 H         0.116320         2.104074        -0.602181
 H        -2.739748         1.940679        -1.082986
 H        -1.510219         1.837308        -2.175870
