19
Iteration:  3952
 C        -3.075109         0.084181        -2.855855
 C        -2.516874        -0.042728        -1.474585
 C        -3.032833        -1.087460        -0.488493
 C        -1.688835        -1.262618        -1.155518
 O        -0.615865        -1.067884        -0.320284
 C         0.036980         0.144932         0.071974
 O         0.959554         0.016467         0.840098
 C        -0.481134         1.336915        -0.647358
 C        -2.051261         1.227095        -0.803654
 H        -2.863545        -0.860349        -3.362704
 H        -4.114480         0.306415        -2.978493
 H        -2.556594         0.948852        -3.404941
 H        -2.940445        -0.797010         0.572393
 H        -3.888388        -1.705738        -0.749967
 H        -1.452795        -2.013602        -1.923941
 H         0.006745         2.237368        -0.182989
 H        -0.141022         1.145121        -1.692651
 H        -2.595136         1.263465         0.220327
 H        -2.474101         2.079133        -1.409206
