19
Iteration:  3668
 C        -2.972038        -0.081696        -2.879903
 C        -2.338073        -0.035431        -1.560195
 C        -3.145005        -0.665354        -0.413210
 C        -1.821740        -1.273294        -0.972886
 O        -0.492459        -1.220538        -0.375252
 C        -0.024512         0.069933         0.077139
 O         1.152217         0.221824         0.309235
 C        -1.068174         1.054238         0.162574
 C        -1.741919         1.233340        -1.142340
 H        -3.244825        -1.135803        -3.140868
 H        -4.029344         0.441658        -2.739748
 H        -2.390298         0.391071        -3.708144
 H        -3.188336        -0.064221         0.525933
 H        -4.070869        -1.127422        -0.735470
 H        -1.859983        -2.177290        -1.515087
 H        -1.621770         0.893480         1.057854
 H        -0.575124         2.039769         0.316346
 H        -2.436573         2.132556        -1.218081
 H        -1.016370         1.548008        -1.899405
