19
Iteration:  1184
 C        -3.377551        -0.035735        -2.739363
 C        -2.409538        -0.078397        -1.592467
 C        -2.871541        -1.004145        -0.431280
 C        -1.564287        -1.264399        -1.164647
 O        -0.375563        -1.030886        -0.479953
 C        -0.044207         0.115083         0.138269
 O         0.920376         0.037657         0.876142
 C        -0.828610         1.297570        -0.159843
 C        -1.870429         1.298507        -1.331422
 H        -4.047955        -0.982721        -2.755303
 H        -4.000735         0.872984        -2.702445
 H        -2.927682        -0.166083        -3.673100
 H        -2.726741        -0.794811         0.705969
 H        -3.735737        -1.688217        -0.685395
 H        -1.535399        -2.136031        -1.816897
 H        -1.270621         1.636467         0.811891
 H        -0.067568         2.258537        -0.290060
 H        -2.631892         2.009463        -1.171079
 H        -1.395977         1.526367        -2.240139
