19
Iteration:   974charge 0 multiplicity 1
 C        -2.633091        -0.070572        -3.006305
 C        -2.455164        -0.095205        -1.512566
 C        -3.197118        -1.038649        -0.507907
 C        -1.813325        -1.295028        -0.988712
 O        -0.677170        -1.127115        -0.091217
 C        -0.002640         0.096275         0.016167
 O         1.209290         0.137127         0.187042
 C        -0.803285         1.392841        -0.101877
 C        -2.181699         1.318615        -0.793115
 H        -2.501387        -1.027025        -3.507823
 H        -3.630186         0.313024        -3.113291
 H        -1.868874         0.550044        -3.417192
 H        -3.206665        -0.703907         0.509438
 H        -3.902587        -1.678758        -0.805570
 H        -1.641617        -2.281309        -1.564853
 H        -0.965817         1.743400         0.897854
 H        -0.028071         2.183857        -0.641622
 H        -3.064722         1.590860        -0.353228
 H        -1.897058         2.035119        -1.657314
