19
Iteration:   765
 C        -3.117232         0.243985        -2.691527
 C        -2.454805        -0.062469        -1.387518
 C        -2.983675        -1.223771        -0.583413
 C        -1.524301        -1.202971        -1.201305
 O        -0.542587        -1.133989        -0.222956
 C        -0.015460         0.085039         0.019396
 O         0.687715         0.254168         1.006162
 C        -0.478883         1.159181        -1.041562
 C        -1.981114         1.182516        -0.773027
 H        -3.657836        -0.560951        -3.344178
 H        -3.870475         0.957595        -2.251479
 H        -2.489119         0.771296        -3.506132
 H        -2.996880        -1.121723         0.524177
 H        -3.645072        -1.996940        -1.012869
 H        -1.380117        -1.805038        -2.092030
 H         0.093815         2.048920        -0.833646
 H        -0.279116         0.804707        -1.957373
 H        -2.229894         1.227888         0.269403
 H        -2.435131         2.161418        -1.248984
