19
Iteration:  3882
 C        -3.099881         0.385670        -2.667038
 C        -2.466787        -0.104745        -1.444331
 C        -3.030253        -1.322767        -0.566656
 C        -1.633576        -1.231555        -1.213879
 O        -0.657415        -1.118693        -0.229027
 C         0.018680         0.097671         0.022110
 O         0.736528         0.309851         0.972419
 C        -0.342284         1.136406        -1.002092
 C        -1.913419         1.105228        -0.733973
 H        -3.761574        -0.394093        -3.202826
 H        -3.735220         1.317921        -2.511101
 H        -2.313226         0.749992        -3.426915
 H        -2.896347        -1.163531         0.518310
 H        -3.872363        -2.010765        -0.874976
 H        -1.354097        -1.772798        -2.131754
 H         0.014660         2.109092        -0.928986
 H        -0.253272         0.771304        -1.925325
 H        -2.276785         1.139133         0.236672
 H        -2.441733         1.991766        -1.206947
