19
Iteration:   358charge 0 multiplicity 1
 C        -3.240153        -0.251592        -2.764047
 C        -2.433195         0.015352        -1.581304
 C        -2.863240        -0.764653        -0.343946
 C        -1.653650        -1.189132        -1.139534
 O        -0.393439        -1.111388        -0.606267
 C        -0.016986         0.033675         0.057377
 O         0.813406        -0.047499         0.923104
 C        -0.730307         1.314696        -0.249971
 C        -1.910414         1.374375        -1.203050
 H        -3.203475        -1.302018        -2.814387
 H        -4.337149        -0.068943        -2.541068
 H        -3.027224         0.335332        -3.666765
 H        -2.511897        -0.375865         0.551494
 H        -3.644335        -1.457893        -0.334403
 H        -1.741265        -2.072343        -1.879036
 H        -1.040797         1.533954         0.724841
 H         0.125745         2.088788        -0.475518
 H        -2.687931         1.982759        -0.701065
 H        -1.698942         2.068057        -2.091692
