19
Iteration:  2522
 C        -3.380749        -0.117233        -2.754381
 C        -2.562745        -0.052892        -1.477505
 C        -2.724151        -0.937326        -0.328683
 C        -1.612006        -1.223191        -1.214436
 O        -0.246704        -1.088732        -0.650483
 C        -0.111802         0.045302         0.148740
 O         0.649114         0.016909         1.074851
 C        -0.622609         1.368561        -0.339383
 C        -1.902393         1.313146        -1.309501
 H        -3.182665        -1.162315        -3.027756
 H        -4.449386         0.251959        -2.588813
 H        -2.998180         0.488563        -3.570584
 H        -2.243814        -0.684906         0.628985
 H        -3.535808        -1.578152        -0.168574
 H        -1.626944        -2.033247        -1.972526
 H        -0.714632         2.009567         0.613867
 H         0.219563         1.933383        -0.798705
 H        -2.650031         2.148093        -1.101370
 H        -1.490314         1.601687        -2.345144
