19
Iteration:  3140charge 0 multiplicity 1
 C        -3.240723        -0.072886        -2.900143
 C        -2.478754        -0.076409        -1.570770
 C        -2.944102        -0.963554        -0.373028
 C        -1.660694        -1.219971        -1.115076
 O        -0.446116        -1.132128        -0.398516
 C         0.017508         0.087314         0.053395
 O         1.023095         0.091257         0.781994
 C        -0.841520         1.298159        -0.093553
 C        -1.885290         1.333818        -1.260503
 H        -3.893017        -0.963860        -2.822480
 H        -3.799776         0.890385        -3.080838
 H        -2.644417        -0.064547        -3.898748
 H        -2.988290        -0.504705         0.603835
 H        -3.759580        -1.683753        -0.429316
 H        -1.580984        -2.199921        -1.638144
 H        -1.334555         1.439852         0.934392
 H        -0.036543         2.007976        -0.177212
 H        -2.641031         1.994747        -1.138023
 H        -1.369426         1.685075        -2.219368
