19
Iteration:  4341charge 0 multiplicity 1
 C        -3.554508        -0.126941        -2.755725
 C        -2.599361         0.037224        -1.537043
 C        -2.796687        -0.905539        -0.301299
 C        -1.719846        -1.166930        -1.245637
 O        -0.278731        -1.039535        -0.774252
 C        -0.038674         0.041958         0.250700
 O         0.856019        -0.029633         1.039276
 C        -0.788477         1.227524        -0.123546
 C        -1.592434         1.311004        -1.383815
 H        -3.964803        -1.214305        -2.907328
 H        -4.411088         0.618131        -2.603791
 H        -3.037602         0.256830        -3.639461
 H        -2.459989        -0.573808         0.683009
 H        -3.656833        -1.526634        -0.453171
 H        -1.642031        -2.104194        -1.844222
 H        -1.285587         1.765587         0.793821
 H         0.103245         1.917441        -0.201278
 H        -2.116283         2.233712        -1.498577
 H        -0.909310         1.298385        -2.260700
