19
Iteration:    74charge 0 multiplicity 1
 C        -2.858960        -0.079395        -3.008768
 C        -2.356875         0.019099        -1.572172
 C        -3.113899        -0.791987        -0.386492
 C        -1.787246        -1.248076        -0.858807
 O        -0.496699        -1.246203        -0.128524
 C        -0.060621         0.014163         0.118835
 O         1.124485         0.165305         0.091911
 C        -1.076136         1.158433         0.105587
 C        -1.858583         1.373752        -1.160467
 H        -3.218350        -1.099781        -3.146584
 H        -3.694295         0.714666        -3.088653
 H        -2.083141        -0.149541        -3.827068
 H        -3.268806        -0.232699         0.547400
 H        -3.969985        -1.450486        -0.556764
 H        -1.704777        -2.058707        -1.565186
 H        -1.705793         0.946316         0.991340
 H        -0.465304         2.153450         0.225630
 H        -2.691831         2.035470        -0.795481
 H        -1.113474         1.668709        -1.909265
