19
Iteration:  1062charge 0 multiplicity 1
 C        -3.041638        -0.025699        -2.895354
 C        -2.427719        -0.015143        -1.563746
 C        -3.018679        -1.149182        -0.529492
 C        -1.672924        -1.290572        -1.049276
 O        -0.633899        -1.108656        -0.054536
 C         0.053989         0.100543         0.016673
 O         1.181562         0.062843         0.451876
 C        -0.886354         1.349777        -0.119641
 C        -2.049183         1.382760        -1.107484
 H        -3.545581        -0.948444        -3.288996
 H        -3.807407         0.727645        -3.047715
 H        -2.280243         0.309585        -3.539142
 H        -3.007430        -0.983378         0.513130
 H        -3.818143        -1.849991        -0.882728
 H        -1.407180        -2.030118        -1.817749
 H        -1.035555         1.697883         0.909126
 H        -0.096523         2.321827        -0.381282
 H        -2.843841         1.935229        -0.709984
 H        -1.633924         1.904424        -1.975953
