19
Iteration:  3527
 C        -3.159661        -0.023575        -2.797243
 C        -2.474534         0.037983        -1.438207
 C        -3.046680        -1.005557        -0.508512
 C        -1.655997        -1.208987        -1.120751
 O        -0.395863        -1.164962        -0.446332
 C         0.042491         0.060774         0.003610
 O         0.733132        -0.016610         0.958364
 C        -0.491259         1.337116        -0.683880
 C        -1.994537         1.339475        -0.850131
 H        -3.237502        -1.030281        -3.171246
 H        -4.221586         0.396572        -2.727204
 H        -2.513040         0.453958        -3.443264
 H        -3.129899        -0.721832         0.545965
 H        -3.812020        -1.675322        -1.056423
 H        -1.558520        -2.029491        -1.895678
 H        -0.212642         2.087141         0.126211
 H         0.184707         1.651905        -1.526583
 H        -2.331164         1.615215         0.234991
 H        -2.430444         2.290319        -1.379418
