19
Iteration:  1330
 C        -3.028462         0.214667        -2.749528
 C        -2.556119        -0.092917        -1.384953
 C        -3.016683        -1.346542        -0.700239
 C        -1.595113        -1.238542        -1.080132
 O        -0.644266        -1.105460        -0.122999
 C         0.050201         0.145230        -0.007251
 O         0.874499         0.260004         0.861629
 C        -0.524580         1.243552        -0.930870
 C        -2.015530         1.202034        -0.723175
 H        -3.411965        -0.615312        -3.237502
 H        -3.790910         1.005319        -2.750226
 H        -2.264987         0.534280        -3.507533
 H        -3.420417        -1.191024         0.257441
 H        -3.520342        -2.036624        -1.287847
 H        -1.361831        -1.901173        -1.873415
 H        -0.110396         2.286639        -0.441815
 H        -0.063069         1.271826        -2.035003
 H        -2.148165         1.244547         0.288953
 H        -2.589839         1.987009        -1.145352
