19
Iteration:  2109
 C        -3.411705        -0.136857        -2.734744
 C        -2.521247        -0.058895        -1.581073
 C        -2.814707        -0.911215        -0.391610
 C        -1.583512        -1.198547        -1.217432
 O        -0.259411        -1.032756        -0.639197
 C         0.003417         0.069056         0.136733
 O         0.760954        -0.023884         1.082796
 C        -0.696071         1.370956        -0.259123
 C        -1.916680         1.280406        -1.278396
 H        -3.838086        -1.154675        -2.896768
 H        -4.293839         0.428092        -2.482294
 H        -3.101374         0.048194        -3.798629
 H        -2.528308        -0.544430         0.596252
 H        -3.590364        -1.721055        -0.491025
 H        -1.427685        -2.086866        -1.732221
 H        -0.993873         1.958286         0.619678
 H         0.151490         1.855579        -0.637481
 H        -2.732466         1.985382        -0.888960
 H        -1.604728         1.744228        -2.322738
