19
Iteration:  4709charge 0 multiplicity 1
 C        -3.464325        -0.098172        -2.704585
 C        -2.522569        -0.047560        -1.534286
 C        -2.845564        -0.754559        -0.381719
 C        -1.637437        -1.208531        -1.111898
 O        -0.270867        -0.971534        -0.731252
 C         0.086228         0.108047         0.091462
 O         0.732231        -0.194083         1.095576
 C        -0.782997         1.306089        -0.150835
 C        -1.717437         1.222314        -1.447144
 H        -3.894579        -1.119552        -2.881952
 H        -4.379331         0.514364        -2.607712
 H        -2.941824         0.177840        -3.587656
 H        -2.569051        -0.341947         0.604049
 H        -3.524874        -1.579663        -0.240214
 H        -1.746873        -2.090412        -1.683628
 H        -1.373125         1.547163         0.738437
 H        -0.147156         2.212890        -0.444918
 H        -2.352212         2.188981        -1.443884
 H        -1.064518         1.389673        -2.260743
