19
Iteration:  3348charge 0 multiplicity 1
 C        -2.897244         0.039333        -3.026499
 C        -2.435301        -0.063825        -1.551521
 C        -3.185004        -1.088763        -0.580113
 C        -1.811580        -1.241896        -0.998960
 O        -0.605803        -1.106675        -0.097734
 C         0.081074         0.080389        -0.020045
 O         1.239996         0.012213         0.457679
 C        -0.717117         1.419990        -0.191491
 C        -2.150408         1.251014        -0.874451
 H        -3.134454        -0.946234        -3.454682
 H        -3.667024         0.771724        -3.150092
 H        -2.035020         0.503466        -3.579285
 H        -3.331774        -0.734163         0.374935
 H        -4.005046        -1.749545        -0.810966
 H        -1.544469        -2.112715        -1.482667
 H        -0.842234         1.810085         0.808384
 H        -0.155739         2.065737        -0.914359
 H        -2.901791         1.536517        -0.038148
 H        -2.361051         2.190583        -1.443282
