19
Iteration:  4491
 C        -2.907932         0.002413        -3.005158
 C        -2.407771         0.014616        -1.502346
 C        -3.191536        -0.831421        -0.466106
 C        -1.745496        -1.287652        -0.923279
 O        -0.613196        -1.233506        -0.064669
 C         0.022119         0.043873         0.048665
 O         1.182303         0.131225         0.130706
 C        -0.940286         1.146049         0.122681
 C        -1.863984         1.379824        -1.151472
 H        -2.889413        -0.999589        -3.465139
 H        -3.950284         0.345494        -2.973857
 H        -2.294079         0.602123        -3.600778
 H        -3.336004        -0.419700         0.551120
 H        -3.956178        -1.509619        -0.846964
 H        -1.509476        -2.165343        -1.600277
 H        -1.660042         0.963254         0.996280
 H        -0.325287         2.094190         0.448457
 H        -2.721584         1.964380        -0.883007
 H        -1.264693         1.732875        -2.012758
