19
Iteration:  1642charge 0 multiplicity 1
 C        -3.132592         0.157337        -2.742207
 C        -2.471312        -0.070187        -1.382681
 C        -3.002072        -1.347766        -0.666583
 C        -1.587886        -1.264849        -1.227144
 O        -0.583882        -1.110805        -0.203682
 C         0.014969         0.155891         0.059196
 O         0.762357         0.277102         1.037584
 C        -0.424989         1.271180        -1.018979
 C        -1.994756         1.253204        -0.704941
 H        -3.843295        -0.651068        -3.094668
 H        -3.786315         1.014590        -2.718932
 H        -2.441587         0.305705        -3.547263
 H        -3.017009        -1.390964         0.371007
 H        -3.623205        -1.957189        -1.275776
 H        -1.184343        -2.002358        -1.943761
 H        -0.070331         2.256730        -0.898419
 H        -0.204723         1.104924        -2.226698
 H        -2.137241         1.237537         0.352929
 H        -2.596724         2.155353        -0.985719
