19
Iteration:  4018
 C        -3.040837        -0.029646        -2.965159
 C        -2.440847        -0.020360        -1.506228
 C        -3.049395        -1.043536        -0.515281
 C        -1.705088        -1.237350        -1.070968
 O        -0.617227        -1.149688        -0.200457
 C        -0.025418         0.053117         0.099878
 O         1.106156         0.019300         0.468426
 C        -0.624183         1.412675        -0.155345
 C        -2.075503         1.341899        -0.985740
 H        -3.488194        -1.027634        -3.104520
 H        -3.856889         0.688863        -3.125731
 H        -2.201490         0.069378        -3.770348
 H        -3.097739        -0.761474         0.505263
 H        -3.858449        -1.613648        -0.907153
 H        -1.513882        -2.003340        -1.860315
 H        -0.780511         1.965875         0.813288
 H         0.171878         1.863644        -0.659961
 H        -2.763273         1.583136        -0.111127
 H        -2.122992         2.181021        -1.728327
