19
Iteration:  4250charge 0 multiplicity 1
 C        -3.293058        -0.050256        -2.832871
 C        -2.555279        -0.036571        -1.557063
 C        -2.899335        -1.011055        -0.356363
 C        -1.636424        -1.187295        -1.124678
 O        -0.414791        -1.012548        -0.515434
 C        -0.016747         0.097974         0.181122
 O         0.973341        -0.147965         0.879654
 C        -0.651585         1.359315        -0.256998
 C        -1.959989         1.293554        -1.246472
 H        -3.791257        -1.051962        -2.968344
 H        -4.048651         0.825157        -2.822592
 H        -2.610340         0.227915        -3.708518
 H        -2.883686        -0.566170         0.642584
 H        -3.815439        -1.580269        -0.626634
 H        -1.684994        -1.990932        -1.808341
 H        -1.043301         1.821069         0.595053
 H         0.216336         2.056869        -0.633533
 H        -2.625334         1.981464        -0.794751
 H        -1.720537         1.833534        -2.225837
