19
Iteration:   247charge 0 multiplicity 1
 C        -3.316056        -0.089860        -2.810531
 C        -2.468132         0.000197        -1.577863
 C        -2.851481        -0.881981        -0.320520
 C        -1.677007        -1.220775        -1.165354
 O        -0.418416        -1.156055        -0.506460
 C        -0.016056         0.033568         0.149207
 O         1.034776         0.064861         0.763749
 C        -0.960805         1.262610        -0.064206
 C        -1.757184         1.316505        -1.327117
 H        -3.923074        -0.993832        -2.709199
 H        -4.120699         0.687458        -2.866941
 H        -2.728107        -0.022236        -3.788564
 H        -2.679275        -0.326060         0.616388
 H        -3.815838        -1.457771        -0.420084
 H        -1.668875        -2.100922        -1.740840
 H        -1.623241         1.196160         0.713758
 H        -0.367444         2.229678         0.202082
 H        -2.453524         2.173666        -1.323772
 H        -1.135991         1.611239        -2.253200
