19
Iteration:   182charge 0 multiplicity 1
 C        -2.929782        -0.061633        -3.015558
 C        -2.495616        -0.020400        -1.520916
 C        -3.109128        -0.857343        -0.448902
 C        -1.756561        -1.268239        -0.991683
 O        -0.528527        -1.206284        -0.195757
 C         0.017993         0.044229         0.032709
 O         1.164189         0.048311         0.407791
 C        -0.803562         1.346393        -0.099431
 C        -2.061584         1.319531        -1.024366
 H        -2.850104        -1.116628        -3.357014
 H        -3.997495         0.209868        -3.193800
 H        -2.165599         0.415350        -3.697754
 H        -2.975081        -0.432738         0.570565
 H        -4.053285        -1.463404        -0.482992
 H        -1.658400        -2.172012        -1.545595
 H        -1.255795         1.473304         1.040739
 H        -0.150148         2.336345        -0.291304
 H        -2.852125         1.868614        -0.503412
 H        -1.773853         1.958279        -1.966247
