19
Iteration:  3908
 C        -3.164156         0.296903        -2.716809
 C        -2.523283         0.011301        -1.373913
 C        -2.999105        -1.315397        -0.662472
 C        -1.596780        -1.299286        -1.113354
 O        -0.528484        -1.201485        -0.177282
 C         0.036468         0.024807        -0.030913
 O         0.719233         0.280561         0.947943
 C        -0.400274         1.148804        -1.021309
 C        -1.943976         1.327491        -0.682292
 H        -3.582360        -0.534331        -3.248769
 H        -3.796814         1.118911        -2.762101
 H        -2.359929         0.730102        -3.307104
 H        -3.411819        -1.210592         0.361099
 H        -3.751492        -1.710725        -1.346763
 H        -1.386649        -1.885226        -2.000627
 H         0.044683         2.142693        -0.772416
 H        -0.335833         0.906635        -2.136339
 H        -2.136257         1.266735         0.443200
 H        -2.472853         2.159151        -1.174031
