19
Iteration:  4475charge 0 multiplicity 1
 C        -2.979357        -0.021769        -3.021525
 C        -2.478344        -0.022016        -1.624723
 C        -3.050050        -0.913852        -0.449170
 C        -1.787189        -1.230228        -1.044873
 O        -0.676150        -1.214841        -0.077911
 C        -0.011161        -0.011999         0.105112
 O         1.207081         0.148433         0.232644
 C        -0.869507         1.270494         0.094823
 C        -1.831510         1.304465        -1.053906
 H        -2.928494        -1.009786        -3.503692
 H        -4.038430         0.260344        -3.101757
 H        -2.281592         0.710080        -3.594307
 H        -2.948259        -0.558680         0.615468
 H        -4.070856        -1.331751        -0.432228
 H        -1.769802        -2.112610        -1.664373
 H        -1.424632         1.304398         1.114747
 H        -0.216988         2.102605        -0.040186
 H        -2.648970         2.068656        -0.849712
 H        -1.303913         1.708907        -1.941656
