19
Iteration:   573charge 0 multiplicity 1
 C        -3.045054        -0.059827        -2.863715
 C        -2.426121        -0.036030        -1.514257
 C        -3.183146        -0.955758        -0.517938
 C        -1.731366        -1.255791        -1.024896
 O        -0.526844        -1.134944        -0.178733
 C         0.003880         0.115150         0.053458
 O         1.194189         0.108290         0.324255
 C        -0.983040         1.280911         0.111654
 C        -1.750742         1.286385        -1.178696
 H        -3.693479        -0.995505        -2.953941
 H        -3.870440         0.691414        -2.867749
 H        -2.333634         0.085449        -3.810457
 H        -3.336843        -0.622701         0.481042
 H        -3.921288        -1.490127        -1.004099
 H        -1.580080        -2.219083        -1.651056
 H        -1.611340         1.232525         0.959080
 H        -0.527672         2.209170         0.145816
 H        -2.551664         2.144864        -1.259359
 H        -1.078292         1.475788        -2.004207
