19
Iteration:  2223
 C        -3.121122        -0.144367        -2.940294
 C        -2.525019        -0.029544        -1.543527
 C        -3.021103        -0.868009        -0.363104
 C        -1.638081        -1.247035        -0.979220
 O        -0.400625        -1.140285        -0.490906
 C         0.007616         0.111423         0.056706
 O         1.069502         0.068537         0.633539
 C        -0.925602         1.282011         0.010542
 C        -1.891258         1.346634        -1.214739
 H        -3.059900        -1.255076        -3.145353
 H        -4.200223         0.208100        -2.883782
 H        -2.477890         0.274616        -3.734847
 H        -3.246779        -0.416937         0.572911
 H        -3.930490        -1.446184        -0.620266
 H        -1.697513        -2.118147        -1.704527
 H        -1.407174         0.922045         0.915684
 H        -0.465401         2.130232         0.147323
 H        -2.802223         2.090485        -1.019067
 H        -1.253608         1.931949        -1.979469
