19
Iteration:  2467
 C        -3.297594        -0.149582        -2.891636
 C        -2.466241        -0.076110        -1.657352
 C        -2.909600        -0.991984        -0.391043
 C        -1.640223        -1.208417        -1.126959
 O        -0.448910        -1.121777        -0.382760
 C         0.020612         0.116110         0.132101
 O         1.042876         0.069381         0.797937
 C        -0.842574         1.367689        -0.125045
 C        -1.895667         1.322492        -1.244181
 H        -4.020790        -0.958271        -2.791810
 H        -3.978822         0.778183        -2.978931
 H        -2.610456        -0.118967        -3.723636
 H        -2.871464        -0.666740         0.661328
 H        -3.875368        -1.436977        -0.615614
 H        -1.559854        -2.143646        -1.787661
 H        -1.161755         1.479162         0.944137
 H        -0.115924         2.158422        -0.306140
 H        -2.810920         2.023039        -1.057032
 H        -1.339164         1.744718        -2.184213
