19
Iteration:  1257
 C        -3.171223        -0.139432        -2.868200
 C        -2.553734        -0.038465        -1.488040
 C        -2.935753        -0.998172        -0.482608
 C        -1.647696        -1.300017        -1.093667
 O        -0.354439        -1.067657        -0.486611
 C        -0.006940         0.091439         0.089206
 O         0.887378        -0.014315         0.947123
 C        -0.580231         1.437563        -0.479548
 C        -2.092395         1.354403        -0.948628
 H        -2.949013        -1.089538        -3.399563
 H        -4.217511         0.190589        -2.947080
 H        -2.621954         0.487696        -3.631867
 H        -3.023623        -0.702344         0.629643
 H        -3.828763        -1.627833        -0.725580
 H        -1.508553        -2.084849        -1.754190
 H        -0.534361         2.287941         0.149375
 H        -0.104894         1.786668        -1.285539
 H        -2.823917         1.727669        -0.101531
 H        -2.279379         2.029224        -1.881679
