19
Iteration:  1543charge 0 multiplicity 1
 C        -3.117211        -0.130316        -2.950907
 C        -2.512558        -0.060054        -1.528273
 C        -3.119727        -1.070703        -0.632126
 C        -1.661656        -1.276990        -1.134129
 O        -0.499538        -1.112144        -0.177000
 C        -0.000693         0.114745         0.070840
 O         1.084504         0.143254         0.691013
 C        -0.637822         1.364803        -0.337585
 C        -2.058856         1.375839        -0.877508
 H        -2.985120        -1.173968        -3.286188
 H        -4.149075         0.067885        -3.007861
 H        -2.673247         0.519407        -3.637681
 H        -2.909254        -1.006045         0.431694
 H        -3.897012        -1.629944        -1.047915
 H        -1.324801        -2.105569        -1.742671
 H        -0.611148         1.922813         0.622760
 H         0.008441         2.060404        -0.988545
 H        -2.595397         1.531501        -0.079415
 H        -2.144697         2.096146        -1.652909
