19
Iteration:    15
 C        -3.077075        -0.190401        -2.980185
 C        -2.547570        -0.032941        -1.545500
 C        -3.157762        -0.809150        -0.349696
 C        -1.757336        -1.177601        -0.939274
 O        -0.432944        -1.094177        -0.412942
 C         0.048645         0.090342         0.088767
 O         1.164035         0.058573         0.484110
 C        -0.974001         1.256124         0.107805
 C        -1.783828         1.316756        -1.260747
 H        -3.366330        -1.208768        -3.201611
 H        -3.929929         0.350161        -3.190297
 H        -2.364334         0.205849        -3.623441
 H        -3.392207        -0.431164         0.602372
 H        -3.669487        -1.757271        -0.606014
 H        -1.856700        -2.154189        -1.413829
 H        -1.618982         1.064056         1.135995
 H        -0.429677         2.121167         0.373309
 H        -2.277651         2.152926        -1.478162
 H        -1.022425         1.380569        -2.045047
