19
Iteration:  1804
 C        -2.998317         0.057607        -2.959776
 C        -2.490966        -0.052097        -1.496031
 C        -3.091842        -1.205813        -0.665626
 C        -1.627722        -1.302352        -1.051464
 O        -0.674720        -1.025618         0.019363
 C         0.078690         0.094166         0.043305
 O         1.190791         0.194240         0.509359
 C        -0.673646         1.310884        -0.378103
 C        -2.177310         1.202920        -0.887958
 H        -3.607658        -0.826240        -3.408128
 H        -3.562051         0.985099        -3.148597
 H        -2.011171         0.069500        -3.424356
 H        -3.166058        -0.996599         0.393692
 H        -3.803654        -1.891962        -1.068175
 H        -1.316304        -2.157113        -1.741542
 H        -0.779521         1.962364         0.490367
 H        -0.090439         2.096124        -1.027661
 H        -2.968958         1.363332        -0.018048
 H        -2.400142         2.021653        -1.598697
