19
Iteration:  4876charge 0 multiplicity 1
 C        -3.012063        -0.164206        -2.988510
 C        -2.394770        -0.081312        -1.656913
 C        -3.158832        -0.759013        -0.518002
 C        -1.880620        -1.277107        -0.973622
 O        -0.601485        -1.126707        -0.322017
 C         0.014639         0.094353         0.172800
 O         1.218812         0.124257         0.321113
 C        -0.884408         1.276029         0.252139
 C        -1.748356         1.270484        -1.124153
 H        -3.235885        -1.161906        -3.259251
 H        -4.024259         0.250542        -2.908022
 H        -2.610505         0.334771        -3.823324
 H        -3.197887        -0.378074         0.515568
 H        -3.956072        -1.459137        -0.711249
 H        -1.902331        -2.284352        -1.304579
 H        -1.385780         1.104189         1.222701
 H        -0.236939         2.178734         0.355424
 H        -2.600278         2.058158        -0.903556
 H        -1.170675         1.673056        -1.993667
