19
Iteration:  4558charge 0 multiplicity 1
 C        -2.726341        -0.086272        -2.999986
 C        -2.441053        -0.027803        -1.516951
 C        -3.177226        -0.752465        -0.359225
 C        -1.778107        -1.235154        -0.944743
 O        -0.591908        -1.307772        -0.220319
 C        -0.056918         0.037696         0.033545
 O         1.158586         0.224389         0.088581
 C        -1.045692         1.140950         0.249799
 C        -1.867185         1.356305        -1.118208
 H        -3.598767        -0.799838        -3.094045
 H        -3.148976         0.856248        -3.394845
 H        -2.008808        -0.492395        -3.633351
 H        -3.038678        -0.160962         0.524917
 H        -4.015675        -1.411835        -0.569529
 H        -1.930548        -2.041324        -1.611510
 H        -1.522903         0.961365         1.237129
 H        -0.415140         2.060302         0.442043
 H        -2.523774         2.190295        -1.029341
 H        -0.978402         1.556669        -1.755399
