19
Iteration:  4804charge 0 multiplicity 1
 C        -3.357084        -0.058666        -2.737879
 C        -2.408641        -0.089689        -1.578426
 C        -2.964431        -0.822644        -0.425790
 C        -1.658337        -1.267917        -1.123666
 O        -0.351074        -1.080973        -0.590284
 C        -0.073073         0.065387         0.160576
 O         0.907396        -0.050237         0.912251
 C        -0.743727         1.432447        -0.139642
 C        -1.819162         1.217326        -1.310887
 H        -3.963941        -0.980706        -2.884054
 H        -4.163039         0.687889        -2.634044
 H        -2.943415         0.239099        -3.781381
 H        -2.816949        -0.490415         0.628954
 H        -3.709824        -1.609010        -0.471668
 H        -1.639612        -2.095508        -1.764596
 H        -1.060927         1.906492         0.823209
 H         0.129391         1.965711        -0.450956
 H        -2.551530         1.993500        -1.371346
 H        -1.108551         1.348442        -2.222483
