19
Iteration:  2108
 C        -3.412904        -0.145275        -2.735970
 C        -2.519219        -0.055337        -1.572435
 C        -2.814616        -0.908887        -0.394640
 C        -1.583443        -1.200972        -1.216923
 O        -0.262092        -1.028273        -0.642315
 C         0.007599         0.070377         0.141463
 O         0.760715        -0.027674         1.083299
 C        -0.696765         1.370495        -0.258318
 C        -1.919259         1.283534        -1.286104
 H        -3.800372        -1.138301        -2.897302
 H        -4.295739         0.427345        -2.494874
 H        -3.083746         0.056532        -3.760632
 H        -2.564074        -0.514503         0.584819
 H        -3.605575        -1.717421        -0.482656
 H        -1.429574        -2.104632        -1.750203
 H        -0.984244         1.934707         0.650302
 H         0.194044         1.867334        -0.682612
 H        -2.724484         1.933050        -0.872843
 H        -1.641722         1.769152        -2.319055
