19
Iteration:   923
 C        -2.841948        -0.033283        -3.032297
 C        -2.518017        -0.050051        -1.515572
 C        -3.129301        -1.091108        -0.606841
 C        -1.699198        -1.252833        -1.029748
 O        -0.694408        -1.100507         0.053329
 C         0.120983         0.112704        -0.023638
 O         1.270585         0.089653         0.333216
 C        -0.765214         1.318553        -0.164978
 C        -2.220988         1.316266        -0.892640
 H        -3.257722        -1.105103        -3.291209
 H        -3.744131         0.618649        -3.205302
 H        -1.922388         0.249250        -3.582853
 H        -3.171466        -0.651267         0.426316
 H        -3.964806        -1.785962        -0.959614
 H        -1.392961        -1.931125        -1.751176
 H        -0.932163         1.712915         0.867870
 H        -0.136602         2.056829        -0.586667
 H        -3.033677         1.553040        -0.134047
 H        -2.239348         2.196666        -1.625982
