19
Iteration:  2227
 C        -3.089602        -0.137347        -2.955363
 C        -2.482431        -0.008693        -1.513944
 C        -3.017760        -0.916197        -0.360992
 C        -1.681873        -1.257372        -0.974733
 O        -0.419644        -1.138607        -0.459249
 C         0.002321         0.097256         0.042688
 O         1.093456         0.075610         0.603829
 C        -0.939864         1.273226         0.002145
 C        -1.921939         1.361004        -1.211888
 H        -3.050544        -1.167444        -3.189196
 H        -4.180483         0.182544        -2.996166
 H        -2.402594         0.242388        -3.688447
 H        -3.310398        -0.386443         0.614155
 H        -3.935633        -1.411596        -0.753127
 H        -1.682138        -2.007733        -1.698922
 H        -1.497302         1.103863         0.940557
 H        -0.202721         2.256708         0.166597
 H        -2.684738         1.988732        -0.860146
 H        -1.475421         1.848699        -2.036067
