19
Iteration:  1736charge 0 multiplicity 1
 C        -2.944976        -0.079115        -3.040217
 C        -2.572010        -0.043721        -1.539700
 C        -3.075960        -1.181845        -0.464663
 C        -1.721586        -1.146691        -1.055060
 O        -0.488222        -1.111620        -0.277240
 C         0.034977         0.118952         0.014550
 O         1.004038         0.126501         0.782734
 C        -0.627238         1.370870        -0.553975
 C        -2.153543         1.272096        -0.709596
 H        -2.676952        -1.023815        -3.477137
 H        -3.984255         0.030223        -3.296397
 H        -2.275979         0.646866        -3.583220
 H        -2.960334        -0.783763         0.498591
 H        -3.894628        -1.797111        -0.717177
 H        -1.501123        -1.825462        -1.851208
 H        -0.108845         2.123229         0.065474
 H        -0.097321         1.740865        -1.494033
 H        -2.745392         1.358218         0.301756
 H        -2.512997         2.151751        -1.189038
