19
Iteration:  1748
 C        -2.861183        -0.116243        -3.071635
 C        -2.554006        -0.029614        -1.429446
 C        -3.095127        -1.072754        -0.464197
 C        -1.683474        -1.239978        -1.104105
 O        -0.525564        -1.099461        -0.302515
 C         0.067362         0.100800        -0.008540
 O         1.046552         0.124399         0.725275
 C        -0.652547         1.376429        -0.464722
 C        -2.230317         1.313812        -0.700198
 H        -2.707867        -1.164091        -3.409405
 H        -3.871052         0.220323        -3.238723
 H        -2.245140         0.632226        -3.635606
 H        -3.218259        -0.769720         0.499475
 H        -3.734556        -1.886799        -0.652614
 H        -1.580920        -2.042488        -1.855261
 H        -0.511632         2.197705         0.221615
 H        -0.316211         1.516357        -1.461242
 H        -2.867496         1.437967         0.270939
 H        -2.395042         2.058831        -1.429235
