19
Iteration:    97charge 0 multiplicity 1
 C        -2.906953        -0.074169        -2.942390
 C        -2.439016        -0.031980        -1.493689
 C        -3.087644        -0.915556        -0.515448
 C        -1.715318        -1.280269        -0.993676
 O        -0.722855        -1.163196         0.034214
 C         0.010847         0.082755        -0.020472
 O         1.209194         0.156410         0.073909
 C        -0.997632         1.265889         0.173443
 C        -1.821686         1.308910        -1.129203
 H        -3.433941        -0.934398        -3.346418
 H        -3.442805         0.939792        -3.086608
 H        -1.962619        -0.188945        -3.544949
 H        -3.171092        -0.557030         0.447999
 H        -4.029496        -1.345626        -0.850035
 H        -1.594566        -2.124097        -1.649216
 H        -1.579461         0.952014         0.982393
 H        -0.415605         2.194311         0.395235
 H        -2.715758         1.981298        -0.921016
 H        -1.171175         1.510986        -1.953010
