19
Iteration:   814charge 0 multiplicity 1
 C        -2.990711         0.150287        -2.764300
 C        -2.490795        -0.015720        -1.378134
 C        -3.121084        -1.223002        -0.611794
 C        -1.648091        -1.212364        -1.105716
 O        -0.465568        -1.113173        -0.250020
 C         0.021846         0.084637        -0.026925
 O         0.814992         0.191971         0.900074
 C        -0.531126         1.289467        -0.943712
 C        -2.057863         1.178964        -0.677577
 H        -2.689813        -0.654944        -3.453645
 H        -4.036638         0.431510        -2.863727
 H        -2.444290         0.928609        -3.255326
 H        -3.331091        -0.859368         0.417977
 H        -3.935470        -1.849631        -0.951423
 H        -1.551859        -1.956279        -1.890469
 H        -0.029593         2.226145        -0.561923
 H        -0.209705         0.965384        -2.063582
 H        -2.196562         1.049499         0.432696
 H        -2.581412         2.019921        -0.947047
