19
Iteration:  4946charge 0 multiplicity 1
 C        -2.705163        -0.110576        -2.990276
 C        -2.404936        -0.037224        -1.530912
 C        -3.083506        -0.807286        -0.508242
 C        -1.827020        -1.321778        -0.920596
 O        -0.651501        -1.205114        -0.078795
 C        -0.091475         0.044372         0.004760
 O         1.080758         0.142277        -0.036024
 C        -0.965830         1.290166         0.278424
 C        -1.846406         1.355315        -0.988096
 H        -3.571259        -0.781061        -3.182508
 H        -3.046826         0.836298        -3.379508
 H        -1.821184        -0.356976        -3.613839
 H        -3.118042        -0.429042         0.506740
 H        -3.961355        -1.452711        -0.747030
 H        -1.766060        -2.349660        -1.406820
 H        -1.516111         1.323392         1.334631
 H        -0.312556         2.175067         0.145472
 H        -2.696513         2.026019        -1.081534
 H        -1.194543         1.642600        -1.738012
