19
Iteration:  3917charge 0 multiplicity 1
 C        -3.144396         0.270456        -2.780914
 C        -2.499328         0.011188        -1.381353
 C        -3.050539        -1.283369        -0.658519
 C        -1.631973        -1.206441        -1.077743
 O        -0.544616        -1.283216        -0.189448
 C         0.069708         0.022265        -0.026175
 O         0.744362         0.256777         0.930565
 C        -0.393161         1.262400        -0.978752
 C        -1.991406         1.298951        -0.675294
 H        -3.412320        -0.763935        -3.158112
 H        -4.078989         0.854751        -2.701762
 H        -2.412869         0.661315        -3.573124
 H        -3.192736        -1.200980         0.465957
 H        -3.710929        -2.040780        -1.233333
 H        -1.335072        -1.689290        -1.997542
 H         0.347069         2.024454        -0.846552
 H        -0.380316         1.037765        -1.975662
 H        -2.203528         1.340675         0.389456
 H        -2.356789         2.279499        -1.110083
