19
Iteration:  2657
 C        -3.417888        -0.102648        -2.786988
 C        -2.510485        -0.088746        -1.581376
 C        -2.857448        -0.867906        -0.332035
 C        -1.629261        -1.159002        -1.151871
 O        -0.266830        -1.039680        -0.616352
 C         0.009628         0.008629         0.186201
 O         0.960204         0.029571         0.951457
 C        -0.976241         1.314105        -0.091651
 C        -1.787111         1.236611        -1.405078
 H        -3.984932        -1.053747        -2.841528
 H        -4.043181         0.736011        -2.976947
 H        -2.813879        -0.055930        -3.748497
 H        -2.616319        -0.489259         0.678517
 H        -3.681573        -1.559811        -0.250004
 H        -1.634166        -2.093351        -1.795179
 H        -1.712014         1.456094         0.638266
 H        -0.293280         2.202058        -0.120355
 H        -2.511222         2.105652        -1.599260
 H        -0.993200         1.406542        -2.237521
