19
Iteration:  3447
 C        -3.262208         0.314921        -2.675867
 C        -2.457198        -0.065876        -1.409400
 C        -3.033381        -1.261749        -0.723070
 C        -1.603664        -1.406348        -1.242496
 O        -0.550689        -1.138637        -0.259323
 C        -0.013936         0.070497         0.001287
 O         0.630796         0.343923         1.017476
 C        -0.312692         1.199442        -0.907028
 C        -1.804253         1.236425        -0.721858
 H        -3.729296        -0.632314        -3.066269
 H        -4.015761         1.025478        -2.311891
 H        -2.685717         0.894887        -3.450675
 H        -3.057744        -1.189360         0.355713
 H        -3.830363        -1.729474        -1.224082
 H        -1.175369        -2.190633        -1.835636
 H         0.307046         1.978428        -0.592663
 H        -0.185365         1.039851        -2.079921
 H        -1.924049         0.896204         0.457192
 H        -2.373032         2.165615        -1.075123
