19
Iteration:  1667charge 0 multiplicity 1
 C        -3.224287         0.214486        -2.756990
 C        -2.568913        -0.072179        -1.395246
 C        -2.895609        -1.372217        -0.705870
 C        -1.519267        -1.151949        -1.233860
 O        -0.629375        -1.047543        -0.098283
 C         0.021439         0.125508         0.052627
 O         0.757422         0.318344         0.949448
 C        -0.394610         1.119275        -0.905463
 C        -1.963124         1.119329        -0.737910
 H        -3.790628        -0.513963        -3.267974
 H        -3.934338         1.055174        -2.663042
 H        -2.467910         0.445231        -3.491180
 H        -2.994413        -1.276976         0.437971
 H        -3.665642        -1.986513        -1.304221
 H        -0.976453        -1.752220        -1.980484
 H         0.027749         2.174039        -0.856817
 H        -0.246083         0.843829        -2.072181
 H        -2.440196         1.397146         0.182058
 H        -2.263022         2.084894        -1.232898
