19
Iteration:   597charge 0 multiplicity 1
 C        -3.100196        -0.086574        -2.983702
 C        -2.506222         0.010005        -1.538403
 C        -3.046217        -1.006147        -0.485712
 C        -1.719608        -1.227544        -1.071110
 O        -0.675482        -1.148914        -0.102922
 C         0.047605         0.057330         0.089069
 O         1.197529         0.118353         0.409105
 C        -0.771451         1.292947        -0.026466
 C        -1.886814         1.357423        -1.119953
 H        -3.751914        -0.927503        -3.216366
 H        -3.809704         0.777865        -3.122234
 H        -2.175557        -0.078033        -3.755427
 H        -2.848887        -0.809866         0.559843
 H        -3.808796        -1.759836        -0.790125
 H        -1.537097        -2.108698        -1.836053
 H        -1.364173         1.247423         0.905631
 H        -0.320934         2.148499        -0.017869
 H        -2.680462         2.091247        -0.773524
 H        -1.481943         1.725778        -2.063324
