19
Iteration:  4860charge 0 multiplicity 1
 C        -3.098694        -0.168663        -2.916043
 C        -2.418814         0.018690        -1.527753
 C        -3.113121        -0.742821        -0.446444
 C        -1.739039        -1.239156        -0.999495
 O        -0.498322        -1.144099        -0.339421
 C        -0.006158        -0.000287         0.118359
 O         1.192452         0.050535         0.473537
 C        -0.947890         1.227874         0.056070
 C        -1.848347         1.329545        -1.202484
 H        -2.907920        -1.230580        -3.279889
 H        -4.165229         0.163486        -2.969128
 H        -2.508191         0.489874        -3.643236
 H        -3.208340        -0.164663         0.463952
 H        -4.022781        -1.260561        -0.783648
 H        -1.723292        -2.101123        -1.713350
 H        -1.657879         1.257489         0.889003
 H        -0.283321         2.073991         0.079125
 H        -2.653690         2.019317        -1.037651
 H        -1.126332         1.729145        -1.986846
