19
Iteration:  2741
 C        -2.792335        -0.076079        -3.079649
 C        -2.452023        -0.047945        -1.555007
 C        -3.122241        -0.978123        -0.438943
 C        -1.772019        -1.253190        -0.856873
 O        -0.634029        -1.111710        -0.051237
 C         0.024081         0.125525         0.009185
 O         1.246615         0.108957         0.089447
 C        -1.026786         1.234714         0.182011
 C        -1.948230         1.327600        -1.118429
 H        -2.932790        -1.079233        -3.555551
 H        -3.752082         0.476973        -3.169688
 H        -1.947641         0.422382        -3.532470
 H        -3.129370        -0.465608         0.488690
 H        -3.971062        -1.510936        -0.741571
 H        -1.641878        -2.161320        -1.496244
 H        -1.727528         0.998372         1.037140
 H        -0.615644         2.233694         0.522549
 H        -2.766976         1.927629        -0.808823
 H        -1.460793         1.797314        -1.919325
