19
Iteration:  3809charge 0 multiplicity 1
 C        -3.074541         0.013272        -2.943156
 C        -2.592997        -0.016413        -1.469160
 C        -2.983110        -1.069115        -0.456968
 C        -1.694716        -1.159894        -1.104665
 O        -0.533979        -1.145540        -0.259472
 C         0.002760         0.066425         0.036842
 O         0.981231        -0.026081         0.747970
 C        -0.548513         1.367175        -0.479136
 C        -2.046459         1.287748        -0.865913
 H        -2.870065        -0.962483        -3.408670
 H        -4.091661         0.240407        -3.186987
 H        -2.475703         0.759494        -3.462813
 H        -3.122042        -0.723090         0.573081
 H        -3.851370        -1.691689        -0.828253
 H        -1.676644        -1.745603        -1.992361
 H        -0.283657         2.174633         0.209880
 H         0.107645         1.522331        -1.520748
 H        -2.677431         1.764994        -0.069135
 H        -2.191398         2.113576        -1.579088
