19
Iteration:  4263
 C        -3.322171        -0.005577        -2.854584
 C        -2.574272        -0.022732        -1.485850
 C        -2.882275        -0.944015        -0.327135
 C        -1.688810        -1.158511        -1.239922
 O        -0.401763        -1.052830        -0.554345
 C        -0.003027        -0.022318         0.164982
 O         0.920111        -0.011053         0.932839
 C        -0.706803         1.274753        -0.237323
 C        -1.891498         1.313245        -1.220539
 H        -3.576194        -1.080402        -3.195789
 H        -4.329807         0.508388        -2.899397
 H        -2.605663         0.292261        -3.619894
 H        -2.544327        -0.659528         0.660878
 H        -3.556573        -1.791874        -0.226646
 H        -1.457965        -2.046218        -1.820291
 H        -0.693387         1.960053         0.617018
 H         0.220118         1.655481        -0.866680
 H        -2.670358         1.962643        -0.971582
 H        -1.482385         1.589280        -2.171116
