19
Iteration:  3650
 C        -3.108555        -0.082237        -3.057835
 C        -2.487176        -0.006197        -1.553744
 C        -3.041145        -0.811761        -0.386979
 C        -1.774407        -1.215062        -0.940032
 O        -0.511750        -1.155546        -0.259092
 C         0.013868         0.050347         0.093659
 O         1.216323         0.075808         0.332266
 C        -1.011676         1.178723         0.190949
 C        -1.749503         1.355530        -1.229606
 H        -3.267891        -1.073507        -3.393122
 H        -3.998985         0.487476        -3.205010
 H        -2.387484         0.372178        -3.687612
 H        -3.089711        -0.416154         0.647467
 H        -3.785812        -1.580701        -0.568281
 H        -1.819449        -2.195361        -1.431614
 H        -1.887682         0.841731         0.869589
 H        -0.629870         2.017775         0.649254
 H        -2.586927         2.075229        -1.188778
 H        -1.129393         1.702005        -2.113760
