19
Iteration:  2079
 C        -3.237739        -0.263345        -2.834975
 C        -2.481135         0.009874        -1.516324
 C        -2.830297        -0.906233        -0.319855
 C        -1.639567        -1.196614        -1.144873
 O        -0.304808        -1.034701        -0.685961
 C        -0.057706         0.070541         0.087967
 O         0.726873        -0.087967         1.009535
 C        -0.651615         1.436921        -0.312867
 C        -1.975745         1.382093        -1.157141
 H        -3.271461        -1.440310        -2.991913
 H        -4.267036         0.075552        -2.605981
 H        -2.944698         0.295902        -3.811103
 H        -2.587830        -0.590026         0.710182
 H        -3.664411        -1.618526        -0.271967
 H        -1.586911        -2.096560        -1.705827
 H        -0.704572         1.991415         0.620150
 H         0.231269         1.718415        -0.947048
 H        -2.819803         1.889779        -0.561905
 H        -1.876997         1.925139        -2.083781
