19
Iteration:   729
 C        -3.271778         0.020430        -2.815976
 C        -2.554944        -0.048680        -1.441511
 C        -3.019932        -1.178899        -0.599751
 C        -1.658126        -1.185993        -1.246181
 O        -0.531301        -1.153073        -0.277615
 C         0.051198         0.086666         0.105400
 O         0.841276         0.206406         1.012343
 C        -0.361128         1.285219        -0.757381
 C        -1.923424         1.264563        -0.881745
 H        -3.792927        -0.865006        -3.065390
 H        -4.048700         0.804403        -2.674186
 H        -2.654874         0.570042        -3.599587
 H        -2.963679        -1.090078         0.570205
 H        -3.849145        -1.889517        -0.963806
 H        -1.316087        -1.792869        -2.055853
 H        -0.100852         2.236032        -0.241808
 H         0.081740         1.356288        -1.690822
 H        -2.316379         1.373784         0.216025
 H        -2.368941         2.108805        -1.438290
