19
Iteration:    66charge 0 multiplicity 1
 C        -2.875715        -0.145456        -3.034728
 C        -2.382620        -0.014227        -1.562751
 C        -3.104394        -0.771061        -0.386626
 C        -1.795983        -1.234260        -0.819072
 O        -0.486776        -1.265674        -0.222617
 C        -0.081163         0.040082         0.021887
 O         1.131436         0.184807         0.163618
 C        -1.057320         1.198883         0.173319
 C        -1.807375         1.326610        -1.091064
 H        -3.287941        -1.166853        -3.216776
 H        -3.765658         0.528525        -3.281660
 H        -2.093810         0.136546        -3.815209
 H        -3.267078        -0.069564         0.348649
 H        -4.043293        -1.293140        -0.580693
 H        -1.916235        -2.113000        -1.437200
 H        -1.637077         1.096060         0.990964
 H        -0.452462         2.015410         0.388628
 H        -2.626679         2.178788        -1.053213
 H        -1.185725         1.755322        -1.866465
