19
Iteration:  1725
 C        -2.993806        -0.027373        -2.945355
 C        -2.583756        -0.013528        -1.494454
 C        -3.026461        -1.167652        -0.516613
 C        -1.664748        -1.200962        -1.094651
 O        -0.514614        -1.089587        -0.259990
 C         0.018449         0.118330         0.072905
 O         0.951987         0.148574         0.805660
 C        -0.562860         1.353967        -0.628335
 C        -2.109349         1.240747        -0.815001
 H        -2.704206        -0.985489        -3.333598
 H        -4.057907         0.144577        -3.070677
 H        -2.483618         0.814253        -3.485311
 H        -3.261723        -0.890500         0.482220
 H        -3.708481        -1.914516        -0.864630
 H        -1.482324        -1.952751        -1.840749
 H        -0.502942         2.230779         0.021324
 H        -0.052566         1.407682        -1.566808
 H        -2.328709         0.986877         0.261375
 H        -2.572308         2.163574        -1.115299
