19
Iteration:  1785charge 0 multiplicity 1
 C        -2.860795         0.036184        -2.983445
 C        -2.524001        -0.122337        -1.491029
 C        -3.135842        -1.176573        -0.547004
 C        -1.665824        -1.304219        -1.022655
 O        -0.570747        -1.163501        -0.123433
 C         0.019797         0.114162         0.022174
 O         1.115266         0.207464         0.523961
 C        -0.724306         1.401785        -0.350203
 C        -2.145146         1.285165        -0.840982
 H        -3.445919        -0.853640        -3.434741
 H        -3.710976         0.802317        -3.016730
 H        -2.066583         0.230704        -3.709673
 H        -3.377372        -0.884704         0.557565
 H        -3.758932        -1.975370        -1.031387
 H        -1.389869        -2.068294        -1.769183
 H        -0.503438         2.153797         0.429471
 H        -0.089922         1.816224        -1.020549
 H        -2.798219         1.719313        -0.100068
 H        -2.360849         2.129157        -1.595758
