19
Iteration:   441
 C        -3.168498         0.033007        -2.808943
 C        -2.447008        -0.046686        -1.542962
 C        -2.999068        -1.086885        -0.464329
 C        -1.654093        -1.245674        -1.118131
 O        -0.528426        -1.205197        -0.181391
 C        -0.004028         0.013823         0.094617
 O         1.090401         0.120395         0.648750
 C        -0.763476         1.335346        -0.272503
 C        -1.963326         1.428728        -1.240686
 H        -3.908959        -0.765920        -3.033941
 H        -3.703451         0.952180        -2.749145
 H        -2.495092        -0.162994        -3.665200
 H        -3.163486        -0.858752         0.587100
 H        -3.827694        -1.726114        -0.893550
 H        -1.649829        -2.157059        -1.630259
 H        -1.064935         1.704800         0.715369
 H        -0.023460         1.919665        -0.536819
 H        -2.790341         1.975415        -0.762650
 H        -1.588265         1.878878        -2.117014
