19
Iteration:   835charge 0 multiplicity 1
 C        -2.997340         0.080638        -2.914631
 C        -2.493278        -0.027273        -1.459154
 C        -3.094346        -1.136993        -0.532713
 C        -1.641824        -1.258744        -1.135321
 O        -0.594077        -1.105877        -0.246157
 C         0.054519         0.154783         0.051631
 O         1.002131         0.144844         0.823601
 C        -0.588272         1.284827        -0.716594
 C        -2.124815         1.221823        -0.674644
 H        -2.843435        -0.864855        -3.601120
 H        -4.076781         0.388952        -3.009050
 H        -2.411781         0.787461        -3.492880
 H        -3.113398        -1.064979         0.564983
 H        -3.763340        -1.845687        -0.947265
 H        -1.503470        -1.987830        -1.960252
 H        -0.171026         2.265468        -0.385522
 H        -0.268524         1.003776        -1.818179
 H        -2.492414         1.337261         0.351680
 H        -2.488208         2.117635        -1.196472
