19
Iteration:  3972
 C        -3.096432         0.044735        -2.989435
 C        -2.533917        -0.028828        -1.508940
 C        -3.085078        -1.113231        -0.473828
 C        -1.710158        -1.183382        -1.011219
 O        -0.480041        -1.154591        -0.249401
 C         0.057896         0.022478         0.060498
 O         1.043852        -0.024432         0.767731
 C        -0.602033         1.396989        -0.581995
 C        -2.079324         1.360569        -0.879790
 H        -3.022391        -0.894252        -3.640235
 H        -4.175041         0.315571        -2.902050
 H        -2.520747         0.924793        -3.511432
 H        -3.304042        -0.720118         0.563720
 H        -3.792925        -1.908541        -0.825130
 H        -1.518820        -1.995528        -1.700237
 H        -0.503672         2.090197         0.265406
 H        -0.036433         1.755593        -1.316160
 H        -2.587349         1.590831         0.040724
 H        -2.192809         2.290799        -1.491205
