19
Iteration:  4646charge 0 multiplicity 1
 C        -3.220455        -0.072774        -2.787259
 C        -2.381105        -0.015699        -1.541169
 C        -3.043897        -0.865576        -0.392306
 C        -1.634267        -1.246037        -1.096594
 O        -0.490889        -1.205618        -0.334725
 C         0.019230         0.081866        -0.013197
 O         0.999332        -0.045886         0.686137
 C        -0.887101         1.361190        -0.098879
 C        -1.747077         1.375969        -1.318054
 H        -3.302063        -1.063050        -3.289525
 H        -4.217326         0.364076        -2.556090
 H        -2.842562         0.663472        -3.455775
 H        -3.071325        -0.528914         0.677882
 H        -3.876347        -1.541337        -0.614428
 H        -1.586035        -2.043493        -1.861072
 H        -1.516858         1.288553         0.884750
 H        -0.228755         2.307070         0.044332
 H        -2.615918         1.951672        -1.056963
 H        -1.357709         1.776540        -2.275622
