19
Iteration:  4473charge 0 multiplicity 1
 C        -2.982136        -0.017233        -3.011158
 C        -2.489817        -0.007713        -1.646166
 C        -3.045729        -0.908225        -0.450795
 C        -1.780317        -1.229656        -1.050045
 O        -0.673680        -1.212100        -0.089936
 C         0.004402         0.006002         0.099105
 O         1.190082         0.129102         0.249797
 C        -0.869953         1.285418         0.098776
 C        -1.837989         1.293189        -1.036279
 H        -2.918896        -1.058442        -3.482361
 H        -4.070873         0.245436        -3.073238
 H        -2.292812         0.667281        -3.584751
 H        -2.908183        -0.653587         0.590056
 H        -4.049041        -1.355608        -0.408602
 H        -1.758265        -2.146382        -1.580041
 H        -1.334249         1.352422         1.039481
 H        -0.255284         2.098110        -0.108654
 H        -2.650959         2.025822        -0.866456
 H        -1.229239         1.674110        -1.977108
