19
Iteration:  3315charge 0 multiplicity 1
 C        -2.795910        -0.011084        -2.941317
 C        -2.457503         0.029013        -1.502453
 C        -3.155714        -1.131197        -0.647031
 C        -1.716127        -1.167596        -1.010111
 O        -0.713404        -1.135734         0.115770
 C        -0.006933         0.040949        -0.005010
 O         1.184456         0.054034         0.127056
 C        -0.796754         1.345986        -0.044978
 C        -2.056404         1.318825        -0.879835
 H        -3.234386        -0.889389        -3.412766
 H        -3.434931         0.770931        -3.268519
 H        -1.787028         0.036910        -3.447302
 H        -3.202080        -0.913707         0.360887
 H        -3.836356        -1.711849        -1.228826
 H        -1.438617        -1.893670        -1.695844
 H        -0.977973         1.748307         0.957467
 H        -0.101848         2.113158        -0.461427
 H        -3.023502         1.620450        -0.333949
 H        -1.904168         1.910312        -1.831106
