19
Iteration:  1137charge 0 multiplicity 1
 C        -3.239841        -0.181849        -2.857830
 C        -2.571186        -0.003418        -1.540446
 C        -2.859978        -0.774646        -0.262534
 C        -1.662191        -1.172353        -1.083108
 O        -0.337948        -0.995291        -0.640686
 C        -0.042018         0.046299         0.146652
 O         1.016510         0.063452         0.713313
 C        -1.109363         1.165988         0.027226
 C        -1.664056         1.232705        -1.336801
 H        -3.476609        -1.212416        -3.087263
 H        -4.177453         0.411588        -2.936478
 H        -2.500328         0.109582        -3.691223
 H        -2.847415        -0.381761         0.708835
 H        -3.617666        -1.554670        -0.370517
 H        -1.796475        -2.158866        -1.517805
 H        -1.855867         1.054416         0.726772
 H        -0.643535         2.094041         0.463860
 H        -2.442126         2.077130        -1.338038
 H        -0.931565         1.310244        -2.094258
