19
Iteration:  2439charge 0 multiplicity 1
 C        -3.098792        -0.128083        -2.886538
 C        -2.547158        -0.044275        -1.539271
 C        -3.028942        -0.931589        -0.397726
 C        -1.680004        -1.261044        -1.070117
 O        -0.463480        -1.165941        -0.347439
 C        -0.014307         0.113561         0.087355
 O         1.112204         0.188595         0.523412
 C        -1.021030         1.246720         0.026253
 C        -1.785174         1.332747        -1.241268
 H        -3.766561        -1.001205        -3.124535
 H        -3.673441         0.725358        -3.106908
 H        -2.175971        -0.171178        -3.528382
 H        -2.959632        -0.535212         0.615617
 H        -3.949506        -1.475324        -0.539807
 H        -1.579032        -2.113739        -1.691315
 H        -1.583852         1.036707         0.957964
 H        -0.301595         2.131269         0.243932
 H        -2.440952         2.169021        -1.221936
 H        -1.065825         1.523503        -2.017142
