19
Iteration:  4788charge 0 multiplicity 1
 C        -3.507282        -0.065219        -2.723911
 C        -2.463250        -0.068881        -1.602919
 C        -2.866621        -0.967666        -0.373441
 C        -1.625527        -1.263211        -1.124648
 O        -0.306616        -1.010322        -0.628580
 C        -0.007579         0.053726         0.156666
 O         0.825473        -0.108717         1.038660
 C        -0.731467         1.371757        -0.208346
 C        -1.702064         1.357201        -1.430529
 H        -4.189015        -0.890675        -2.567412
 H        -4.027832         0.896597        -2.593155
 H        -3.080377        -0.085579        -3.677425
 H        -3.106400        -0.401702         0.510664
 H        -3.768494        -1.517944        -0.684094
 H        -1.624050        -2.348139        -1.490469
 H        -1.344292         1.772318         0.660107
 H         0.030478         2.184023        -0.507940
 H        -2.443756         2.176982        -1.136293
 H        -1.117795         1.683923        -2.236753
