19
Iteration:  2486charge 0 multiplicity 1
 C        -3.344913        -0.137500        -2.782975
 C        -2.460475        -0.040959        -1.583752
 C        -2.924375        -0.920143        -0.475204
 C        -1.606820        -1.278601        -1.124536
 O        -0.320739        -1.081128        -0.490162
 C         0.002480         0.102507         0.125794
 O         0.894404         0.002591         0.940587
 C        -0.712899         1.438333        -0.235155
 C        -1.938516         1.311815        -1.275792
 H        -3.888177        -1.073275        -2.804944
 H        -4.261372         0.522271        -2.665489
 H        -2.870121        -0.034799        -3.764573
 H        -2.854372        -0.623370         0.589032
 H        -3.694111        -1.751736        -0.665099
 H        -1.474242        -2.178343        -1.767462
 H        -1.316028         1.737682         0.790221
 H         0.185434         2.003997        -0.403092
 H        -2.700083         1.903217        -0.924096
 H        -1.694582         1.633175        -2.217506
