19
Iteration:  4417
 C        -3.282928        -0.094256        -2.883531
 C        -2.598987         0.028018        -1.540529
 C        -3.017188        -0.858004        -0.402195
 C        -1.696481        -1.194996        -1.134301
 O        -0.424135        -1.172648        -0.456995
 C         0.072282        -0.000850         0.053513
 O         1.073417         0.083973         0.739017
 C        -0.807499         1.219543        -0.029398
 C        -1.828138         1.311744        -1.173510
 H        -3.808036        -1.108771        -3.057152
 H        -3.940378         0.825831        -3.059835
 H        -2.487423        -0.017950        -3.644991
 H        -2.982935        -0.385090         0.567446
 H        -3.921790        -1.341010        -0.726579
 H        -1.477096        -1.962769        -1.877059
 H        -1.332712         1.296996         0.913362
 H        -0.123532         2.059071         0.038486
 H        -2.493706         2.172940        -1.061080
 H        -1.133820         1.526124        -2.132209
