19
Iteration:  2851
 C        -2.753495        -0.070268        -3.024097
 C        -2.345662        -0.047791        -1.515729
 C        -3.222177        -0.870499        -0.615740
 C        -1.746829        -1.318264        -0.831549
 O        -0.602362        -1.224312         0.071853
 C        -0.079847         0.094662         0.040736
 O         1.131208         0.200919        -0.132093
 C        -0.977235         1.281273         0.261531
 C        -1.910056         1.306385        -0.997104
 H        -2.905993        -1.064629        -3.532353
 H        -3.696359         0.441222        -3.258602
 H        -1.893603         0.276565        -3.594258
 H        -3.672214        -0.534114         0.335011
 H        -3.814641        -1.634691        -1.027637
 H        -1.528875        -2.194511        -1.566904
 H        -1.501438         1.172805         1.235925
 H        -0.287339         2.147918         0.242670
 H        -2.688133         2.157804        -0.659177
 H        -1.274415         1.686191        -1.881515
