19
Iteration:  1317
 C        -3.012326         0.144110        -2.791480
 C        -2.450655        -0.071789        -1.398717
 C        -3.106182        -1.262701        -0.620831
 C        -1.635566        -1.262525        -1.106623
 O        -0.503344        -1.127860        -0.188268
 C         0.041086         0.082483        -0.042381
 O         0.847382         0.238413         0.900391
 C        -0.527415         1.326841        -0.844948
 C        -2.105929         1.236158        -0.763312
 H        -3.497424        -0.749453        -3.160746
 H        -3.843133         0.855717        -2.611185
 H        -2.260075         0.636004        -3.378728
 H        -3.215608        -1.209281         0.398550
 H        -3.745689        -1.887144        -1.171684
 H        -1.310834        -1.915130        -1.958155
 H        -0.005491         2.231755        -0.417927
 H        -0.320318         1.132364        -1.957523
 H        -2.496538         1.387022         0.203860
 H        -2.474150         2.026227        -1.351604
