19
Iteration:  2979
 C        -3.503927        -0.138423        -2.705993
 C        -2.518828         0.001212        -1.496024
 C        -2.713363        -0.896450        -0.334989
 C        -1.519344        -1.265509        -1.237476
 O        -0.280435        -0.986557        -0.630287
 C        -0.098693         0.069829         0.236626
 O         0.785892        -0.095822         1.028090
 C        -0.909044         1.323723        -0.176099
 C        -1.730269         1.291674        -1.510411
 H        -4.216764        -0.976336        -2.607626
 H        -4.028396         0.831351        -2.929963
 H        -3.013466        -0.211435        -3.630969
 H        -2.332909        -0.439863         0.551440
 H        -3.690970        -1.379056        -0.204976
 H        -1.409467        -2.048120        -2.098539
 H        -1.268547         1.897555         0.648215
 H        -0.035220         2.078752        -0.420001
 H        -2.343954         2.075698        -1.512977
 H        -1.050549         1.436512        -2.308712
