19
Iteration:  2081
 C        -3.251207        -0.266349        -2.828573
 C        -2.466901        -0.004852        -1.534956
 C        -2.834645        -0.909906        -0.303983
 C        -1.642498        -1.195296        -1.145568
 O        -0.302990        -1.028964        -0.692671
 C        -0.052087         0.069108         0.107245
 O         0.729444        -0.091649         1.012987
 C        -0.662041         1.428780        -0.330791
 C        -1.978426         1.397518        -1.147480
 H        -3.301091        -1.374040        -3.050921
 H        -4.285857         0.090636        -2.620363
 H        -2.952139         0.220880        -3.750843
 H        -2.585168        -0.583822         0.726766
 H        -3.680226        -1.552996        -0.368466
 H        -1.531453        -2.137625        -1.733875
 H        -0.781820         2.006078         0.606856
 H         0.319588         1.799851        -0.954396
 H        -2.770842         1.905624        -0.592368
 H        -1.826253         1.913158        -2.026230
