19
Iteration:  2877
 C        -2.862423        -0.145843        -2.937028
 C        -2.367494        -0.003228        -1.535651
 C        -3.163197        -0.908970        -0.532131
 C        -1.815053        -1.248307        -0.966686
 O        -0.634450        -1.172685        -0.064856
 C         0.008594         0.084240         0.071183
 O         1.225157         0.187277         0.118033
 C        -0.980423         1.236886         0.166624
 C        -1.875088         1.307886        -1.104068
 H        -2.782379        -1.108735        -3.394334
 H        -3.890347         0.130925        -3.070431
 H        -2.193944         0.453905        -3.594499
 H        -3.408692        -0.438552         0.404135
 H        -4.054006        -1.450274        -0.949163
 H        -1.582780        -1.931884        -1.704493
 H        -1.662893         0.976226         1.075368
 H        -0.492324         2.202868         0.330424
 H        -2.606306         1.960340        -0.854467
 H        -1.335570         1.686384        -1.893131
