19
Iteration:    35
 C        -2.935965        -0.207845        -2.980935
 C        -2.508084        -0.031482        -1.524465
 C        -3.215723        -0.755439        -0.374691
 C        -1.885021        -1.225359        -0.920240
 O        -0.512706        -1.043028        -0.437217
 C         0.074978         0.109232         0.147964
 O         1.244116         0.148376         0.358623
 C        -1.010632         1.151480         0.132636
 C        -1.744417         1.183702        -1.161255
 H        -3.055540        -1.285728        -3.169402
 H        -3.873034         0.238795        -3.199603
 H        -2.201817         0.200099        -3.657243
 H        -3.136234        -0.165543         0.460737
 H        -4.205216        -1.187984        -0.578977
 H        -1.856036        -2.105433        -1.551806
 H        -1.770635         0.992405         0.969600
 H        -0.585723         2.065804         0.314499
 H        -2.461291         1.990954        -1.022286
 H        -1.074006         1.469446        -1.992539
