19
Iteration:  4047
 C        -2.980367        -0.008326        -2.961888
 C        -2.489347        -0.045498        -1.440579
 C        -3.139766        -1.092706        -0.514693
 C        -1.702800        -1.196509        -1.051486
 O        -0.651271        -1.045215        -0.130161
 C         0.124049         0.087219        -0.015506
 O         1.245847        -0.054233         0.470941
 C        -0.752506         1.317873        -0.144618
 C        -2.148940         1.337488        -1.044169
 H        -3.680380        -0.861218        -3.151899
 H        -3.424610         0.951060        -3.219303
 H        -2.136352        -0.054561        -3.629976
 H        -3.124723        -0.733974         0.559872
 H        -4.046168        -1.555208        -0.969488
 H        -1.378396        -1.746924        -1.915752
 H        -1.059219         1.434903         0.896398
 H        -0.099431         2.153449        -0.426587
 H        -2.808090         1.837088        -0.466202
 H        -1.901036         1.950701        -1.898818
