19
Iteration:  3354charge 0 multiplicity 1
 C        -2.886674         0.033981        -3.012447
 C        -2.497191        -0.059642        -1.535531
 C        -3.202098        -1.024701        -0.571203
 C        -1.739515        -1.260020        -0.998135
 O        -0.618919        -1.137009        -0.135336
 C         0.128568         0.068368        -0.053629
 O         1.175690         0.043602         0.519619
 C        -0.727643         1.422015        -0.263438
 C        -2.107331         1.232130        -0.849828
 H        -3.093350        -0.963655        -3.390064
 H        -3.796154         0.723273        -3.036243
 H        -2.110623         0.567439        -3.587349
 H        -3.373053        -0.685174         0.543738
 H        -3.945190        -1.788312        -0.899853
 H        -1.527927        -2.127390        -1.771747
 H        -0.716924         1.877060         0.798996
 H        -0.158790         2.099215        -0.857479
 H        -2.704025         1.309024         0.065442
 H        -2.320956         2.117898        -1.451776
