19
Iteration:   126charge 0 multiplicity 1
 C        -2.930734        -0.083098        -2.950382
 C        -2.476763        -0.083617        -1.501683
 C        -3.184374        -1.098650        -0.592097
 C        -1.732938        -1.223870        -0.944917
 O        -0.704853        -1.057233        -0.037857
 C        -0.000755         0.107287         0.144516
 O         1.219655         0.044698         0.069815
 C        -0.827950         1.399907         0.157743
 C        -1.846174         1.282770        -1.095014
 H        -3.634358        -0.894580        -3.233342
 H        -3.432308         0.854292        -3.193220
 H        -2.023670         0.186293        -3.552176
 H        -3.536960        -0.788385         0.483177
 H        -3.736064        -1.780845        -1.285069
 H        -1.493353        -2.162000        -1.509924
 H        -1.466914         1.585870         1.235253
 H        -0.089875         2.363626         0.043650
 H        -2.644059         2.001188        -0.904381
 H        -1.406897         1.807695        -2.064139
