19
Iteration:  1361charge 0 multiplicity 1
 C        -3.002279         0.229288        -2.868414
 C        -2.512396        -0.082881        -1.463074
 C        -3.031592        -1.350479        -0.740527
 C        -1.579221        -1.201803        -1.158771
 O        -0.814478        -1.037147         0.030317
 C         0.110728         0.147500         0.032471
 O         1.030697         0.311123         0.771231
 C        -0.531610         1.137252        -0.889524
 C        -2.084257         1.131705        -0.589989
 H        -3.360490        -0.689096        -3.304469
 H        -3.926881         0.854881        -2.741342
 H        -2.300241         0.835473        -3.392931
 H        -3.172512        -1.133240         0.241116
 H        -3.658296        -1.993589        -1.208337
 H        -1.177992        -1.799737        -1.982115
 H        -0.106257         2.142375        -0.758694
 H        -0.539246         0.824729        -1.929019
 H        -2.201578         1.095154         0.483748
 H        -2.679197         1.945736        -0.927348
