19
Iteration:  1357
 C        -3.017784         0.238103        -2.868218
 C        -2.523161        -0.095800        -1.448914
 C        -3.018991        -1.356557        -0.747486
 C        -1.609838        -1.205538        -1.163436
 O        -0.789072        -1.018346         0.037097
 C         0.079664         0.135929         0.002338
 O         1.019034         0.319637         0.792599
 C        -0.525056         1.160433        -0.881547
 C        -2.035660         1.125736        -0.593913
 H        -3.422016        -0.727999        -3.453884
 H        -3.885533         0.926824        -2.770932
 H        -2.294965         0.820179        -3.516287
 H        -3.032639        -1.262026         0.448639
 H        -3.861313        -2.038109        -1.266299
 H        -1.146127        -1.789522        -2.028232
 H         0.074147         2.025294        -0.837711
 H        -0.480757         0.815131        -1.888200
 H        -2.278054         1.037952         0.612160
 H        -2.772883         1.940010        -0.987230
