19
Iteration:   428charge 0 multiplicity 1
 C        -3.191320         0.050188        -2.830326
 C        -2.412973        -0.071698        -1.483714
 C        -3.036006        -1.037653        -0.503457
 C        -1.687047        -1.398319        -1.069842
 O        -0.491993        -1.187952        -0.252276
 C         0.014604         0.099227         0.023445
 O         1.000946         0.084903         0.717300
 C        -0.713046         1.430634        -0.292542
 C        -1.920846         1.331439        -1.167528
 H        -3.947454        -0.820219        -2.850547
 H        -3.770085         1.016193        -2.928074
 H        -2.538257         0.231241        -3.693096
 H        -2.885338        -0.754655         0.569822
 H        -3.865133        -1.814568        -0.715246
 H        -1.474347        -2.139874        -1.748901
 H        -0.967174         1.759989         0.633842
 H        -0.033205         2.108330        -0.661416
 H        -2.760433         2.052369        -0.836308
 H        -1.762384         1.742677        -2.164375
