19
Iteration:  2370
 C        -2.762111        -0.162597        -2.999858
 C        -2.382170        -0.020948        -1.553975
 C        -3.198625        -0.861716        -0.470314
 C        -1.799304        -1.209689        -0.883563
 O        -0.548650        -1.241152        -0.117930
 C        -0.007161         0.096479         0.041652
 O         1.173622         0.265633        -0.000385
 C        -1.075316         1.111126         0.238765
 C        -1.855448         1.376432        -1.035643
 H        -2.782094        -1.193049        -3.406802
 H        -3.794748         0.252172        -3.164723
 H        -1.960637         0.420793        -3.487959
 H        -3.411319        -0.238446         0.392673
 H        -4.026107        -1.561616        -0.750496
 H        -1.947022        -2.212156        -1.399212
 H        -1.716113         0.759987         0.970849
 H        -0.690564         2.158558         0.478593
 H        -2.697964         2.096402        -0.758067
 H        -1.228046         1.765021        -1.886471
