19
Iteration:  1041
 C        -2.963794        -0.054905        -2.932785
 C        -2.464868        -0.088280        -1.476367
 C        -3.120210        -1.133521        -0.640236
 C        -1.657224        -1.249776        -1.099930
 O        -0.664242        -1.042507        -0.013150
 C        -0.034821         0.166963         0.087141
 O         1.135605         0.088367         0.298072
 C        -0.736929         1.411775        -0.093632
 C        -1.990190         1.228359        -0.980441
 H        -3.541930        -1.003113        -3.266301
 H        -3.654188         0.792856        -2.877511
 H        -2.130425         0.112436        -3.526245
 H        -3.202687        -0.930257         0.407870
 H        -3.848891        -1.869349        -1.093729
 H        -1.394294        -2.098362        -1.678259
 H        -0.987168         1.625051         0.980591
 H         0.033636         2.302052        -0.382435
 H        -2.640295         1.741514        -0.371825
 H        -1.785842         1.813078        -1.964432
