19
Iteration:   329charge 0 multiplicity 1
 C        -3.408947        -0.100660        -2.750354
 C        -2.509006        -0.069366        -1.536327
 C        -2.847078        -0.841919        -0.300364
 C        -1.623835        -1.227126        -1.184217
 O        -0.295812        -1.105733        -0.657284
 C        -0.059525         0.069603         0.146915
 O         0.843607        -0.037709         0.958916
 C        -0.831673         1.391733        -0.172112
 C        -1.765798         1.313951        -1.390194
 H        -3.613652        -1.192860        -3.031642
 H        -4.304412         0.550236        -2.482357
 H        -2.949493         0.277616        -3.665071
 H        -2.534964        -0.566514         0.752955
 H        -3.489417        -1.749665        -0.238450
 H        -1.598439        -2.178447        -1.775385
 H        -1.286058         1.737388         0.905199
 H        -0.049974         2.026250        -0.392366
 H        -2.512734         2.132452        -1.259605
 H        -1.098801         1.408545        -2.250186
