19
Iteration:  2388
 C        -2.848658        -0.136792        -3.109054
 C        -2.445455        -0.068586        -1.584387
 C        -3.198568        -0.703049        -0.433367
 C        -1.800381        -1.282051        -0.885125
 O        -0.528855        -1.202319        -0.206952
 C         0.035631         0.075662         0.060358
 O         1.222393         0.326365         0.093063
 C        -1.106785         1.148129         0.342997
 C        -1.831336         1.206901        -1.051867
 H        -2.932977        -1.188914        -3.336474
 H        -3.873004         0.317548        -3.226600
 H        -2.133465         0.195890        -3.861460
 H        -3.300198        -0.234019         0.564397
 H        -4.015829        -1.439995        -0.645769
 H        -1.715401        -2.134451        -1.485700
 H        -1.674372         0.759076         1.281774
 H        -0.584883         1.988069         0.575320
 H        -2.661649         1.968239        -1.107898
 H        -1.075864         1.494817        -1.869142
