19
Iteration:  3577charge 0 multiplicity 1
 C        -3.123531         0.070757        -2.910880
 C        -2.572413        -0.023758        -1.524451
 C        -2.964958        -0.973657        -0.451067
 C        -1.658368        -1.216999        -1.101409
 O        -0.531367        -1.205529        -0.263357
 C         0.020588         0.024939         0.089339
 O         1.080864         0.001251         0.717108
 C        -0.672706         1.328764        -0.280140
 C        -2.082521         1.316354        -1.116745
 H        -3.623745        -0.932911        -3.134250
 H        -3.920740         0.817212        -3.019756
 H        -2.306359         0.332390        -3.710157
 H        -3.012466        -0.757690         0.610045
 H        -3.664205        -1.726846        -0.737795
 H        -1.521729        -2.053711        -1.842011
 H        -0.715837         1.943973         0.599805
 H         0.100991         1.897434        -0.882835
 H        -2.773274         1.982869        -0.551483
 H        -1.931704         2.024933        -1.887848
