19
Iteration:   702
 C        -3.198698        -0.029555        -2.861825
 C        -2.466705        -0.062401        -1.472970
 C        -2.946107        -1.024322        -0.518493
 C        -1.631214        -1.249353        -1.175947
 O        -0.512617        -1.124248        -0.298523
 C        -0.023412         0.077736         0.075995
 O         0.908877         0.027000         0.863249
 C        -0.548742         1.326456        -0.533921
 C        -2.028538         1.407022        -0.915749
 H        -3.364846        -1.103489        -3.209185
 H        -4.118667         0.540733        -2.726238
 H        -2.675713         0.445362        -3.644812
 H        -2.950583        -0.813873         0.494899
 H        -3.695594        -1.713068        -0.723420
 H        -1.332929        -2.151334        -1.754339
 H        -0.311212         2.197085         0.077146
 H        -0.088222         1.611407        -1.644513
 H        -2.690255         1.715315        -0.140686
 H        -2.216903         2.063610        -1.765016
