19
Iteration:  3084charge 0 multiplicity 1
 C        -3.464227        -0.193787        -2.654843
 C        -2.453998        -0.010732        -1.567794
 C        -2.860316        -0.913735        -0.333221
 C        -1.554087        -1.199430        -1.150174
 O        -0.239468        -1.066164        -0.707702
 C        -0.002823         0.132127         0.091802
 O         0.627601        -0.100729         1.122586
 C        -0.649320         1.416867        -0.325786
 C        -1.795958         1.338871        -1.343455
 H        -3.564982        -1.168991        -3.150788
 H        -4.453130        -0.011759        -2.212357
 H        -3.026027         0.457083        -3.519470
 H        -2.870156        -0.512858         0.693097
 H        -3.678529        -1.691791        -0.494947
 H        -1.705539        -2.079621        -1.881540
 H        -1.109210         1.841152         0.653854
 H         0.170133         2.003034        -0.641827
 H        -2.467708         2.037607        -1.148915
 H        -1.357770         1.538650        -2.378030
