19
Iteration:  2218
 C        -3.153619        -0.175079        -2.913802
 C        -2.529509        -0.045782        -1.570889
 C        -3.027761        -0.819168        -0.384706
 C        -1.654498        -1.234238        -1.025027
 O        -0.365840        -1.125461        -0.508200
 C         0.031785         0.107200         0.062991
 O         1.048416         0.067794         0.666702
 C        -0.941531         1.245361         0.009839
 C        -1.871230         1.348648        -1.207466
 H        -3.196962        -1.243002        -3.138350
 H        -4.143397         0.230316        -2.875705
 H        -2.623844         0.377429        -3.721809
 H        -3.071617        -0.369355         0.650071
 H        -3.822008        -1.562917        -0.493434
 H        -1.704651        -2.152219        -1.575490
 H        -1.472146         0.903087         0.968083
 H        -0.486559         2.366711         0.242324
 H        -2.675102         2.048365        -1.166189
 H        -1.183510         1.787178        -1.932356
