19
Iteration:  2758charge 0 multiplicity 1
 C        -2.694729        -0.088891        -2.981500
 C        -2.363892        -0.112688        -1.537854
 C        -3.235798        -0.843319        -0.564178
 C        -1.740536        -1.294084        -0.944461
 O        -0.670623        -1.084467         0.034396
 C         0.005815         0.108272         0.014921
 O         1.225310         0.170723        -0.055688
 C        -1.012210         1.234820         0.218133
 C        -1.996882         1.244830        -0.969997
 H        -3.092585        -1.020212        -3.342952
 H        -3.490680         0.618265        -3.241641
 H        -1.824760         0.071059        -3.673815
 H        -3.394897        -0.393411         0.430113
 H        -4.033712        -1.635658        -0.821833
 H        -1.598103        -2.163055        -1.550443
 H        -1.426974         0.991922         1.223154
 H        -0.527956         2.173932         0.208436
 H        -2.958612         1.881881        -0.779799
 H        -1.289966         1.697412        -1.787467
