19
Iteration:  2283charge 0 multiplicity 1
 C        -2.898818        -0.034758        -2.958402
 C        -2.398866        -0.098369        -1.522237
 C        -3.175337        -1.078262        -0.598109
 C        -1.662425        -1.257462        -0.956338
 O        -0.671205        -1.114528        -0.019234
 C         0.034010         0.151606         0.031740
 O         1.241617         0.097588         0.235469
 C        -0.879349         1.292701         0.031360
 C        -2.081713         1.377216        -1.093833
 H        -3.607965        -0.826446        -3.124264
 H        -3.533829         0.846256        -3.131737
 H        -2.166333         0.047395        -3.778105
 H        -3.320926        -0.750612         0.457403
 H        -3.711656        -1.934725        -1.037519
 H        -1.415289        -2.105755        -1.606774
 H        -1.121379         1.234574         1.076748
 H        -0.148284         2.276593         0.124065
 H        -2.756373         1.913983        -0.554453
 H        -1.816680         1.922870        -1.946603
