19
Iteration:   796
 C        -3.017503         0.251978        -2.851251
 C        -2.567251        -0.061366        -1.343741
 C        -2.998618        -1.256321        -0.555374
 C        -1.668646        -1.315611        -1.109417
 O        -0.551394        -1.185472        -0.267494
 C         0.049499         0.086067        -0.106113
 O         0.686832         0.349837         0.910645
 C        -0.432237         1.201324        -0.914276
 C        -1.932277         1.229211        -0.627318
 H        -2.961318        -0.604135        -3.460312
 H        -4.026703         0.632972        -2.701687
 H        -2.453052         1.117661        -3.358216
 H        -3.265829        -1.378363         0.595708
 H        -3.672681        -2.058709        -1.073001
 H        -1.471061        -1.925809        -1.931357
 H         0.131462         2.083260        -0.520515
 H        -0.324887         1.079381        -1.984152
 H        -2.197085         1.195703         0.497277
 H        -2.357071         2.194697        -1.098602
