19
Iteration:  2679charge 0 multiplicity 1
 C        -3.327362        -0.177217        -2.882034
 C        -2.475343        -0.057360        -1.615789
 C        -2.921084        -0.856246        -0.426391
 C        -1.657521        -1.196968        -1.041750
 O        -0.408628        -1.047630        -0.441471
 C         0.011904         0.096601         0.116031
 O         1.052360         0.048632         0.732033
 C        -0.933516         1.262486         0.014180
 C        -1.769509         1.275458        -1.314331
 H        -3.666026        -1.226920        -3.071127
 H        -4.195364         0.487930        -2.903911
 H        -2.759223         0.239101        -3.772387
 H        -2.942960        -0.433875         0.617828
 H        -3.719866        -1.560145        -0.565168
 H        -1.626219        -2.207058        -1.576132
 H        -1.647375         1.150457         0.872824
 H        -0.356948         2.214016         0.162165
 H        -2.515643         2.135848        -1.204234
 H        -1.214559         1.610488        -2.256820
