19
Iteration:  3745charge 0 multiplicity 1
 C        -3.034878        -0.038060        -2.935275
 C        -2.432737         0.015804        -1.535574
 C        -3.073086        -0.989463        -0.521724
 C        -1.780480        -1.240640        -0.984074
 O        -0.592476        -1.172111        -0.189958
 C         0.020346         0.021853         0.072435
 O         1.195828         0.074906         0.370706
 C        -0.851731         1.283585         0.016085
 C        -1.912340         1.375292        -1.100913
 H        -3.659992        -0.949335        -2.914226
 H        -3.652390         0.945532        -3.210498
 H        -2.324866        -0.140150        -3.779194
 H        -3.239241        -0.790709         0.535885
 H        -3.916007        -1.476620        -1.033142
 H        -1.480407        -1.992286        -1.657762
 H        -1.352565         1.470493         0.981358
 H        -0.141128         2.144516        -0.104283
 H        -2.815723         1.946520        -0.689351
 H        -1.510583         1.838215        -2.001637
