19
Iteration:  1199charge 0 multiplicity 1
 C        -3.393196        -0.074380        -2.799132
 C        -2.483311        -0.056182        -1.553688
 C        -2.821166        -1.087008        -0.413845
 C        -1.578319        -1.211144        -1.228236
 O        -0.377555        -1.158820        -0.378842
 C         0.017948         0.045620         0.128428
 O         0.955947         0.041173         0.952778
 C        -0.813968         1.423935        -0.285315
 C        -1.929058         1.364938        -1.309618
 H        -4.170107        -0.751409        -2.816117
 H        -4.045727         0.830044        -2.681816
 H        -2.855185         0.223108        -3.764610
 H        -2.691021        -0.695115         0.506828
 H        -3.664508        -1.681825        -0.555371
 H        -1.301354        -2.007370        -2.011292
 H        -1.310042         1.773269         0.759892
 H        -0.045743         2.072019        -0.622333
 H        -2.789442         1.968726        -0.955179
 H        -1.584258         1.858411        -2.345336
