19
Iteration:  4070charge 0 multiplicity 1
 C        -3.031534        -0.009045        -3.003290
 C        -2.518034        -0.032189        -1.459295
 C        -3.167292        -1.035064        -0.562646
 C        -1.748691        -1.231082        -1.015959
 O        -0.628655        -1.200530        -0.134748
 C         0.060657         0.073536         0.057646
 O         1.221639         0.130807         0.340859
 C        -0.779346         1.298546        -0.031104
 C        -1.933608         1.352121        -0.993574
 H        -3.558429        -0.949448        -3.283508
 H        -3.547384         0.879217        -3.339085
 H        -2.077934         0.043231        -3.544294
 H        -3.281724        -0.645052         0.457312
 H        -3.803680        -1.837145        -0.964857
 H        -1.725043        -2.096752        -1.680787
 H        -1.071835         1.420253         1.018382
 H        -0.155670         2.075736        -0.251490
 H        -2.588298         1.991828        -0.582148
 H        -1.487473         1.815661        -1.876398
