19
Iteration:   781charge 0 multiplicity 1
 C        -3.078171         0.315647        -2.725790
 C        -2.541722        -0.032059        -1.371061
 C        -2.984302        -1.290796        -0.562867
 C        -1.612594        -1.338246        -1.240245
 O        -0.543353        -1.199735        -0.213838
 C        -0.004980         0.084020        -0.037599
 O         0.672640         0.376067         0.948308
 C        -0.425132         1.153179        -0.953666
 C        -1.947750         1.202930        -0.714233
 H        -3.283212        -0.606556        -3.286259
 H        -4.018183         0.837827        -2.852748
 H        -2.295599         0.897830        -3.121438
 H        -2.798027        -1.132066         0.503160
 H        -3.878186        -1.761773        -0.959234
 H        -1.275736        -2.023234        -2.070578
 H         0.057706         2.126282        -0.695700
 H        -0.145651         0.980510        -2.147435
 H        -2.084787         1.286276         0.404705
 H        -2.449811         2.025460        -1.091426
