19
Iteration:  4468
 C        -3.002450        -0.023372        -3.004476
 C        -2.490629         0.017650        -1.619175
 C        -3.062168        -0.883135        -0.455663
 C        -1.759031        -1.241987        -1.060769
 O        -0.656567        -1.194326        -0.125880
 C         0.012579         0.060702         0.076007
 O         1.165595         0.071779         0.296754
 C        -0.864002         1.292285         0.086498
 C        -1.859076         1.271340        -1.050306
 H        -2.899934        -1.020735        -3.365912
 H        -4.041954         0.262507        -3.040405
 H        -2.384804         0.585590        -3.635065
 H        -2.789879        -0.678987         0.608298
 H        -3.952274        -1.522808        -0.521905
 H        -1.656435        -2.280215        -1.509802
 H        -1.261931         1.504193         1.162021
 H        -0.200649         2.205738        -0.190489
 H        -2.669283         1.988482        -0.912023
 H        -1.216694         1.578752        -1.847980
