19
Iteration:  2036charge 0 multiplicity 1
 C        -3.248437        -0.026753        -2.822388
 C        -2.462699        -0.100729        -1.539449
 C        -2.919629        -1.026001        -0.381783
 C        -1.639285        -1.269460        -1.124688
 O        -0.339112        -1.136097        -0.492385
 C        -0.024789         0.083621         0.116560
 O         0.852944         0.069879         0.976865
 C        -0.636863         1.354700        -0.396708
 C        -2.046660         1.378750        -1.169420
 H        -3.505953        -1.060169        -3.191528
 H        -4.204737         0.492133        -2.814138
 H        -2.678030         0.295060        -3.703936
 H        -2.767681        -0.672204         0.658301
 H        -3.686062        -1.794540        -0.573075
 H        -1.521899        -2.028036        -1.852919
 H        -0.597789         2.174547         0.338050
 H         0.124404         1.772395        -1.260332
 H        -2.798646         1.693495        -0.414739
 H        -2.066777         2.039662        -1.961349
