19
Iteration:  2834charge 0 multiplicity 1
 C        -2.597551        -0.027860        -3.019145
 C        -2.370060        -0.078842        -1.538664
 C        -3.175720        -0.976829        -0.511047
 C        -1.738723        -1.278458        -0.868283
 O        -0.728422        -1.120007         0.090111
 C        -0.050566         0.098949         0.017230
 O         1.169766         0.155389        -0.234525
 C        -1.047776         1.249416         0.262261
 C        -1.924254         1.309765        -0.984066
 H        -3.052033        -0.953106        -3.367771
 H        -3.409164         0.711074        -3.221231
 H        -1.689417         0.127376        -3.682720
 H        -3.231889        -0.475906         0.442317
 H        -4.136148        -1.500602        -0.883529
 H        -1.632883        -2.207697        -1.319823
 H        -1.566316         0.970429         1.250443
 H        -0.544501         2.160891         0.552182
 H        -2.842659         1.808082        -0.892916
 H        -1.325884         1.826682        -1.727158
