19
Iteration:  3754charge 0 multiplicity 1
 C        -3.049435        -0.027917        -2.896139
 C        -2.390588        -0.048290        -1.585514
 C        -3.166125        -0.968821        -0.561218
 C        -1.733110        -1.215244        -1.025454
 O        -0.555223        -1.167178        -0.204538
 C        -0.049500         0.017103         0.125683
 O         1.131307         0.103607         0.396492
 C        -0.730997         1.285653        -0.043416
 C        -1.935255         1.367811        -1.026793
 H        -3.689233        -0.911702        -3.084056
 H        -3.800659         0.802836        -2.957002
 H        -2.325769        -0.098835        -3.720770
 H        -3.335981        -0.660772         0.511391
 H        -3.739355        -1.871096        -0.866540
 H        -1.653841        -2.066982        -1.687133
 H        -0.997065         1.650796         0.938984
 H         0.187775         2.054504        -0.393115
 H        -2.840796         1.874138        -0.584757
 H        -1.583059         1.904795        -1.924027
