19
Iteration:  1221charge 0 multiplicity 1
 C        -3.355138        -0.082687        -2.809011
 C        -2.523456        -0.019699        -1.527231
 C        -2.844630        -1.043009        -0.480559
 C        -1.593797        -1.231000        -1.219730
 O        -0.404473        -1.130484        -0.401010
 C        -0.020599         0.077786         0.103291
 O         0.890290         0.121964         0.937449
 C        -0.644305         1.328233        -0.339450
 C        -1.991683         1.317754        -1.145534
 H        -3.692448        -1.059183        -2.922038
 H        -4.279389         0.526979        -2.845712
 H        -2.669476         0.337454        -3.612837
 H        -2.669375        -0.852872         0.502233
 H        -3.647228        -1.674810        -0.709858
 H        -1.402730        -2.065282        -1.940354
 H        -0.741851         1.753509         0.768275
 H         0.189486         1.783541        -0.818304
 H        -2.782212         1.940783        -0.748319
 H        -1.619906         1.863434        -2.077756
