19
Iteration:  2987
 C        -3.546462        -0.168786        -2.691760
 C        -2.492106         0.001066        -1.535011
 C        -2.708643        -0.888036        -0.344348
 C        -1.503882        -1.256781        -1.209703
 O        -0.259935        -0.983014        -0.711410
 C        -0.162630         0.048105         0.195197
 O         0.705092        -0.077824         1.064782
 C        -0.846140         1.371336        -0.184871
 C        -1.649742         1.292539        -1.428194
 H        -4.200948        -0.987646        -2.495254
 H        -4.182974         0.724912        -2.683723
 H        -3.049041        -0.282928        -3.674240
 H        -2.272354        -0.570650         0.663888
 H        -3.622523        -1.466892        -0.208110
 H        -1.376045        -2.056680        -1.987694
 H        -1.312276         1.879071         0.747935
 H         0.074876         1.913293        -0.526028
 H        -2.349772         2.360106        -1.550919
 H        -1.141338         1.251037        -2.400641
