19
Iteration:  4925
 C        -2.732221        -0.010703        -2.923849
 C        -2.362449        -0.033329        -1.437238
 C        -3.171338        -0.871611        -0.377669
 C        -1.791977        -1.251965        -0.913042
 O        -0.622336        -1.267146        -0.037957
 C        -0.065256         0.002823         0.005212
 O         1.120575         0.194723         0.003015
 C        -1.089583         1.175061         0.097945
 C        -1.761731         1.423763        -1.176157
 H        -3.510548        -0.789568        -3.232281
 H        -3.046731         0.944565        -3.376743
 H        -1.815559        -0.269170        -3.536465
 H        -3.217927        -0.492700         0.633942
 H        -4.060191        -1.421313        -0.735614
 H        -1.590285        -2.048682        -1.706400
 H        -1.955706         0.838004         0.804726
 H        -0.527717         2.018721         0.552965
 H        -2.566902         2.033942        -0.960345
 H        -1.209467         1.721444        -2.041656
