19
Iteration:  2205
 C        -3.269896        -0.197646        -2.898263
 C        -2.444211        -0.043305        -1.596254
 C        -2.963652        -0.789300        -0.371373
 C        -1.736015        -1.192655        -1.118694
 O        -0.339705        -1.051961        -0.549457
 C         0.037442         0.049740         0.085435
 O         1.077492         0.104136         0.759596
 C        -1.029055         1.195256         0.072503
 C        -1.809166         1.266875        -1.257198
 H        -3.398523        -1.177058        -3.270146
 H        -4.280900         0.284695        -2.726913
 H        -2.696618         0.267649        -3.684073
 H        -2.794503        -0.255964         0.604771
 H        -3.793873        -1.542956        -0.405290
 H        -1.774049        -2.123612        -1.615267
 H        -1.760068         1.215290         0.899189
 H        -0.253925         2.160713         0.251078
 H        -2.440506         2.064451        -1.130606
 H        -1.250654         1.392939        -2.132435
