19
Iteration:  2006
 C        -3.318882         0.025479        -2.830100
 C        -2.465321        -0.101574        -1.587040
 C        -2.994409        -1.137056        -0.546125
 C        -1.602659        -1.266287        -1.170131
 O        -0.496209        -1.079739        -0.274063
 C         0.044175         0.134293         0.127586
 O         0.944690         0.155378         0.924263
 C        -0.553463         1.338783        -0.478732
 C        -1.997905         1.253394        -1.049848
 H        -3.828242        -0.878585        -2.892773
 H        -4.021526         0.874846        -2.818082
 H        -2.830752         0.154098        -3.756138
 H        -2.960932        -1.104446         0.554078
 H        -3.704076        -1.826819        -0.913016
 H        -1.214165        -1.973465        -1.942756
 H        -0.597220         2.076381         0.334018
 H         0.156422         1.559136        -1.259101
 H        -2.665528         1.492177        -0.265419
 H        -2.071048         2.040068        -1.867014
