19
Iteration:   415charge 0 multiplicity 1
 C        -3.205836         0.004994        -2.846232
 C        -2.509012        -0.123724        -1.534219
 C        -2.990401        -1.017690        -0.413410
 C        -1.662670        -1.286304        -1.101673
 O        -0.514924        -1.108292        -0.351680
 C         0.023386         0.103178         0.045217
 O         0.973425         0.079565         0.771735
 C        -0.638331         1.406279        -0.245993
 C        -1.909012         1.229727        -1.172368
 H        -3.807110        -0.880681        -3.262344
 H        -3.974451         0.847934        -2.631484
 H        -2.478122         0.075613        -3.659015
 H        -3.053652        -0.688796         0.656931
 H        -3.967819        -1.399345        -0.749542
 H        -1.594984        -2.119550        -1.841063
 H        -0.810150         1.811718         0.663124
 H         0.175544         2.080258        -0.736047
 H        -2.796625         1.762459        -0.662099
 H        -1.548093         1.753092        -2.117729
