19
Iteration:  4010
 C        -3.048446        -0.053980        -2.946415
 C        -2.411002        -0.012184        -1.519727
 C        -3.115025        -1.040068        -0.522494
 C        -1.697930        -1.227423        -1.092733
 O        -0.617508        -1.166838        -0.233896
 C        -0.026627         0.069966         0.152158
 O         1.140147         0.076378         0.504626
 C        -0.674168         1.307426        -0.221383
 C        -2.003351         1.358567        -0.927680
 H        -3.399121        -0.994850        -3.294104
 H        -3.909991         0.626703        -3.000461
 H        -2.308090         0.203253        -3.703718
 H        -3.132711        -0.759666         0.506837
 H        -4.063159        -1.494769        -0.758538
 H        -1.515487        -1.906666        -1.941553
 H        -0.617523         1.933664         0.705022
 H         0.234229         1.917010        -0.817716
 H        -2.943579         1.589103        -0.211039
 H        -2.209138         2.085935        -1.722577
