19
Iteration:  3247charge 0 multiplicity 1
 C        -2.748726        -0.044731        -3.039787
 C        -2.421203        -0.020310        -1.572441
 C        -3.177244        -0.892115        -0.544786
 C        -1.804013        -1.325550        -0.870998
 O        -0.656450        -1.158399         0.072600
 C        -0.031662         0.057997         0.042326
 O         1.163075         0.211819        -0.132215
 C        -0.984442         1.203205         0.256530
 C        -1.857704         1.312911        -1.013718
 H        -2.672386        -0.986151        -3.538892
 H        -3.709805         0.273100        -3.300709
 H        -1.804250         0.422884        -3.459262
 H        -3.378103        -0.469066         0.458524
 H        -3.855582        -1.527867        -1.087759
 H        -1.643297        -2.297394        -1.354402
 H        -1.507792         0.904652         1.213404
 H        -0.450952         2.080228         0.455405
 H        -2.833233         1.953244        -0.701495
 H        -1.177697         1.883681        -1.675629
