19
Iteration:   675charge 0 multiplicity 1
 C        -3.074141        -0.022705        -2.928151
 C        -2.521917        -0.012112        -1.491301
 C        -3.020511        -0.978773        -0.384478
 C        -1.715163        -1.183461        -1.094756
 O        -0.472687        -1.159714        -0.362146
 C         0.035796         0.035963         0.121308
 O         1.046558         0.010012         0.779014
 C        -0.666290         1.323225        -0.437449
 C        -2.089734         1.347104        -1.031422
 H        -2.913711        -1.046848        -3.249015
 H        -4.158086         0.301244        -3.069611
 H        -2.329443         0.441675        -3.711768
 H        -3.035891        -0.544739         0.692066
 H        -3.868554        -1.740400        -0.588489
 H        -1.572617        -2.040439        -1.726795
 H        -0.694793         2.091323         0.353578
 H        -0.107737         1.692599        -1.143848
 H        -2.837085         1.620192        -0.235444
 H        -2.261284         2.091203        -1.876608
