19
Iteration:  3836
 C        -3.052359         0.056249        -2.781856
 C        -2.465574        -0.045673        -1.443507
 C        -3.075235        -1.119324        -0.605102
 C        -1.673297        -1.208692        -1.170855
 O        -0.547718        -1.150042        -0.302747
 C         0.040187         0.029896         0.067854
 O         0.917103         0.129259         0.904096
 C        -0.518236         1.248086        -0.751279
 C        -2.033288         1.355022        -0.772155
 H        -3.204007        -0.964860        -3.213504
 H        -4.161439         0.488374        -2.529520
 H        -2.708174         0.843322        -3.504490
 H        -3.279933        -0.793426         0.421485
 H        -3.891457        -1.556144        -1.090186
 H        -1.679564        -1.871975        -2.073984
 H         0.003854         2.128221        -0.309303
 H        -0.132371         1.071652        -1.735999
 H        -2.332195         1.495084         0.288745
 H        -2.414919         2.287074        -1.227379
