19
Iteration:  4692charge 0 multiplicity 1
 C        -3.517062        -0.101792        -2.897831
 C        -2.570213        -0.017621        -1.574113
 C        -2.822345        -0.844005        -0.229299
 C        -1.653003        -1.123831        -1.156882
 O        -0.230576        -1.056974        -0.695345
 C        -0.059109        -0.017931         0.229228
 O         0.862489        -0.077342         1.024019
 C        -0.760745         1.303543        -0.175207
 C        -1.725241         1.292897        -1.368750
 H        -3.616301        -1.165028        -3.071268
 H        -4.480059         0.366495        -2.620753
 H        -3.073387         0.493432        -3.745578
 H        -2.911054        -0.273662         0.683443
 H        -3.761939        -1.399699        -0.364532
 H        -1.676646        -2.172372        -1.631003
 H        -1.274998         1.609365         0.795829
 H         0.095776         1.963165        -0.303904
 H        -2.267636         2.198904        -1.415734
 H        -1.069842         1.215251        -2.357097
