19
Iteration:  1763charge 0 multiplicity 1
 C        -2.828197        -0.049914        -2.861505
 C        -2.521034        -0.060214        -1.495653
 C        -3.075167        -1.069317        -0.538999
 C        -1.702717        -1.231204        -1.023886
 O        -0.504859        -1.109462        -0.299457
 C        -0.005208         0.125114         0.086474
 O         1.077799         0.117694         0.598060
 C        -0.768889         1.367041        -0.425705
 C        -2.195337         1.255646        -0.845940
 H        -2.804239        -1.105201        -3.300420
 H        -3.800819         0.379148        -3.230003
 H        -2.003905         0.384332        -3.422167
 H        -3.233236        -0.736978         0.546851
 H        -3.875706        -1.689411        -1.009200
 H        -1.525132        -2.079431        -1.706176
 H        -0.464827         2.115076         0.335115
 H        -0.135801         1.572770        -1.224552
 H        -2.820177         1.383857         0.017952
 H        -2.569262         2.185342        -1.366665
