19
Iteration:  4358
 C        -3.433012        -0.037541        -2.677590
 C        -2.481502         0.010719        -1.504929
 C        -2.879129        -0.834761        -0.301664
 C        -1.635469        -1.178620        -1.200451
 O        -0.300306        -1.015571        -0.749652
 C         0.029036        -0.001456         0.077701
 O         0.796112        -0.023923         0.964303
 C        -0.868350         1.269579        -0.068564
 C        -1.658974         1.183868        -1.403036
 H        -4.030050        -0.913387        -2.564749
 H        -4.224867         0.711946        -2.678267
 H        -2.935677        -0.120139        -3.655023
 H        -2.804346        -0.483177         0.742467
 H        -3.685726        -1.607835        -0.343563
 H        -1.636071        -2.040763        -1.867977
 H        -1.564846         1.202103         0.701458
 H        -0.207755         2.151327         0.063413
 H        -2.110620         2.203992        -1.540571
 H        -0.824332         1.173640        -2.201781
