19
Iteration:  3667
 C        -2.978472        -0.080758        -2.882457
 C        -2.342693        -0.035232        -1.568720
 C        -3.140016        -0.665237        -0.403571
 C        -1.815817        -1.270755        -0.973263
 O        -0.497974        -1.216742        -0.371536
 C        -0.018053         0.065005         0.077707
 O         1.155289         0.217249         0.310288
 C        -1.074358         1.056524         0.157178
 C        -1.741933         1.236399        -1.142151
 H        -3.245081        -1.145369        -3.159194
 H        -4.026303         0.434141        -2.754376
 H        -2.369771         0.395658        -3.708203
 H        -3.202818        -0.096280         0.541832
 H        -4.058376        -1.135351        -0.749347
 H        -1.847472        -2.202851        -1.504780
 H        -1.637162         0.879024         1.036366
 H        -0.567854         2.078805         0.330465
 H        -2.423508         2.128878        -1.201941
 H        -1.017794         1.567313        -1.886252
