19
Iteration:  1604
 C        -3.003979         0.072975        -2.878558
 C        -2.521942        -0.067029        -1.469785
 C        -2.971252        -1.161522        -0.470321
 C        -1.657420        -1.245068        -1.170235
 O        -0.465798        -1.211275        -0.355184
 C         0.009900         0.086888         0.045080
 O         0.858652         0.260183         0.946078
 C        -0.591165         1.336643        -0.769272
 C        -2.099649         1.236015        -0.779265
 H        -3.101107        -0.868135        -3.438525
 H        -3.950162         0.694579        -2.824045
 H        -2.142563         0.623170        -3.457630
 H        -3.011586        -0.888032         0.628356
 H        -3.916132        -1.800523        -0.586620
 H        -1.674409        -2.091451        -1.857572
 H        -0.167964         2.134660        -0.091188
 H        -0.260638         1.376550        -1.729972
 H        -2.683353         1.381940         0.273775
 H        -2.577188         2.133470        -1.302272
