19
Iteration:  1140charge 0 multiplicity 1
 C        -3.247559        -0.168964        -2.880452
 C        -2.562362         0.013024        -1.525745
 C        -2.872705        -0.785034        -0.257656
 C        -1.663367        -1.181998        -1.102403
 O        -0.337959        -0.990963        -0.646958
 C        -0.041876         0.034756         0.130802
 O         1.022308         0.071623         0.738240
 C        -1.120717         1.163060         0.023998
 C        -1.674416         1.233389        -1.351093
 H        -3.468230        -1.284186        -3.030011
 H        -4.127811         0.466220        -2.881013
 H        -2.605347         0.036358        -3.663240
 H        -2.779995        -0.391296         0.818314
 H        -3.646658        -1.613853        -0.296665
 H        -1.689622        -2.165005        -1.464448
 H        -1.919935         1.016575         0.761006
 H        -0.526997         2.139975         0.467426
 H        -2.281755         2.085745        -1.384373
 H        -0.924970         1.313884        -2.095391
