19
Iteration:  3564charge 0 multiplicity 1
 C        -3.176542         0.022468        -2.940840
 C        -2.564850         0.001039        -1.531426
 C        -2.991669        -0.980530        -0.447366
 C        -1.683528        -1.179229        -1.164745
 O        -0.492520        -1.073587        -0.342742
 C         0.016445         0.012337         0.217395
 O         1.078698        -0.006404         0.780493
 C        -0.669411         1.233342        -0.405765
 C        -2.031997         1.291334        -1.003296
 H        -3.497137        -0.931813        -3.361559
 H        -3.946428         0.734039        -3.036947
 H        -2.326212         0.364981        -3.605692
 H        -2.850366        -0.499060         0.553373
 H        -3.866513        -1.607361        -0.476650
 H        -1.586611        -2.042445        -1.802857
 H        -0.690184         1.986806         0.452985
 H         0.062433         1.553273        -1.080745
 H        -2.706103         1.603653        -0.313497
 H        -1.976491         1.889861        -1.860811
