19
Iteration:  3608
 C        -3.069181        -0.037370        -2.810937
 C        -2.429416        -0.016722        -1.490826
 C        -3.112732        -1.003133        -0.544266
 C        -1.717179        -1.331694        -1.096859
 O        -0.619947        -1.132248        -0.254917
 C        -0.005695         0.099416         0.050787
 O         1.105176         0.074657         0.519561
 C        -0.701473         1.342295        -0.083970
 C        -1.897428         1.367288        -1.146186
 H        -3.525434        -1.013563        -2.954218
 H        -3.815454         0.681644        -2.871434
 H        -2.391408         0.118523        -3.672997
 H        -3.270005        -0.944632         0.540129
 H        -3.944058        -1.526874        -0.988838
 H        -1.614085        -2.153799        -1.841541
 H        -1.138828         1.381246         0.973303
 H         0.036205         2.109525        -0.168527
 H        -2.550407         1.919975        -0.608737
 H        -1.574967         1.894117        -2.024274
