19
Iteration:   590
 C        -3.128129        -0.081899        -2.955679
 C        -2.466228        -0.030186        -1.527974
 C        -3.066557        -1.020122        -0.512172
 C        -1.737755        -1.277011        -1.036073
 O        -0.670861        -1.118043        -0.136412
 C         0.025749         0.045408         0.112260
 O         1.225002         0.150164         0.380300
 C        -0.809546         1.270482         0.021882
 C        -1.847023         1.375039        -1.189067
 H        -3.705910        -0.971476        -3.140531
 H        -3.668738         0.795631        -3.300285
 H        -2.321572         0.082785        -3.577077
 H        -3.066559        -0.869977         0.606044
 H        -3.945632        -1.681645        -0.836724
 H        -1.563730        -2.012858        -1.728655
 H        -1.423067         1.116084         0.979698
 H        -0.087804         2.253196         0.291588
 H        -2.539178         2.111600        -0.895367
 H        -1.411590         1.867602        -2.108585
