19
Iteration:  4116
 C        -2.998312        -0.067000        -2.984157
 C        -2.444410        -0.010369        -1.538149
 C        -3.027307        -0.788935        -0.361349
 C        -1.796429        -1.230210        -0.989620
 O        -0.546148        -1.149365        -0.220197
 C        -0.010003         0.027098         0.045490
 O         1.186698         0.127769         0.240540
 C        -1.065933         1.115001         0.199690
 C        -1.775867         1.334402        -1.192036
 H        -3.129345        -1.114461        -3.248245
 H        -3.989792         0.401433        -3.006911
 H        -2.418072         0.518232        -3.765025
 H        -3.040922        -0.280713         0.567752
 H        -3.924035        -1.270703        -0.666615
 H        -1.667583        -2.085587        -1.686293
 H        -1.739789         0.627078         0.917123
 H        -0.699849         1.945377         0.635466
 H        -2.470068         2.054968        -1.173796
 H        -0.968110         1.576932        -1.912871
