19
Iteration:  2694
 C        -3.175823        -0.169419        -2.909008
 C        -2.412445        -0.045151        -1.580361
 C        -3.096028        -0.827820        -0.419574
 C        -1.740354        -1.336827        -1.119118
 O        -0.478017        -1.147915        -0.387639
 C         0.013986         0.099629         0.125222
 O         1.120941         0.183498         0.594519
 C        -0.914227         1.290963         0.029853
 C        -1.776992         1.320236        -1.200897
 H        -3.268143        -1.207733        -3.130606
 H        -4.190669         0.160487        -2.722552
 H        -2.585244         0.238428        -3.697553
 H        -2.988915        -0.473180         0.620375
 H        -3.981116        -1.445643        -0.724377
 H        -1.672387        -2.237470        -1.677923
 H        -1.471303         1.208206         0.886882
 H        -0.350927         2.150065         0.240724
 H        -2.696883         1.983661        -1.047308
 H        -1.074812         1.664556        -2.024310
