19
Iteration:  2052
 C        -3.196606        -0.186233        -2.889020
 C        -2.521909         0.006037        -1.465180
 C        -2.825196        -0.956893        -0.285435
 C        -1.633639        -1.185688        -1.184180
 O        -0.340597        -1.106913        -0.587294
 C        -0.031948         0.030761         0.098815
 O         0.786907         0.030450         0.998835
 C        -0.673947         1.353782        -0.459167
 C        -2.033236         1.366727        -1.088303
 H        -3.189705        -1.200739        -3.227425
 H        -4.193672         0.305860        -2.821563
 H        -2.665527         0.522646        -3.543320
 H        -2.619708        -0.710034         0.763394
 H        -3.766132        -1.511494        -0.324436
 H        -1.600584        -2.110183        -1.862352
 H        -0.800219         1.841696         0.508932
 H         0.128415         1.661512        -1.017116
 H        -2.754176         1.929046        -0.515181
 H        -1.907429         1.937155        -2.119871
