19
Iteration:   753charge 0 multiplicity 1
 C        -3.223029         0.198813        -2.750573
 C        -2.490663        -0.040520        -1.441480
 C        -2.900773        -1.246726        -0.622949
 C        -1.602534        -1.243773        -1.135381
 O        -0.509606        -1.094958        -0.231525
 C         0.061005         0.138018         0.011482
 O         0.692357         0.175564         1.017255
 C        -0.433044         1.157231        -0.933550
 C        -1.973346         1.267703        -0.777435
 H        -3.805746        -0.728918        -3.024929
 H        -4.024592         0.994114        -2.653128
 H        -2.526974         0.713877        -3.550350
 H        -3.136267        -1.182736         0.517511
 H        -3.674934        -1.837203        -1.196434
 H        -1.247770        -1.929264        -1.859102
 H         0.049996         2.138817        -0.906825
 H        -0.321482         0.834416        -1.859218
 H        -2.267601         1.364282         0.292338
 H        -2.449260         2.161248        -1.361101
