19
Iteration:   931charge 0 multiplicity 1
 C        -2.803409        -0.049550        -2.971283
 C        -2.466694        -0.062604        -1.504546
 C        -3.179133        -1.062902        -0.641160
 C        -1.706744        -1.228605        -0.943469
 O        -0.688589        -1.073499        -0.015800
 C         0.096558         0.051551        -0.026526
 O         1.276856         0.102474         0.311255
 C        -0.819817         1.299572        -0.163653
 C        -2.210755         1.349488        -0.842828
 H        -2.938802        -1.048763        -3.468911
 H        -3.653296         0.609113        -3.209715
 H        -2.007042         0.243939        -3.613010
 H        -3.275533        -0.683327         0.364676
 H        -3.790211        -1.843105        -0.836955
 H        -1.408968        -1.941021        -1.779564
 H        -0.911047         1.558216         0.849011
 H        -0.313770         2.016661        -0.702849
 H        -2.943306         1.681445        -0.176302
 H        -2.312518         1.966134        -1.875678
