19
Iteration:   307
 C        -3.515677        -0.000045        -2.717339
 C        -2.527400        -0.080884        -1.502625
 C        -2.837048        -0.966565        -0.291920
 C        -1.597627        -1.210292        -1.183557
 O        -0.317464        -0.972353        -0.630412
 C        -0.011104         0.068901         0.151031
 O         0.882126         0.022062         0.983269
 C        -0.873230         1.252498        -0.200521
 C        -1.630508         1.206927        -1.474724
 H        -4.066424        -0.980296        -2.870220
 H        -4.135164         0.943209        -2.580768
 H        -2.949877         0.139889        -3.641594
 H        -2.825159        -0.578505         0.758114
 H        -3.794633        -1.415112        -0.564895
 H        -1.447310        -2.151457        -1.818628
 H        -1.721310         1.241182         0.769550
 H        -0.270460         2.090447        -0.092243
 H        -2.264734         2.120647        -1.573616
 H        -0.865367         1.134874        -2.242479
