19
Iteration:  2102
 C        -3.430428        -0.184858        -2.741028
 C        -2.484475        -0.048070        -1.539947
 C        -2.816870        -0.916256        -0.397989
 C        -1.573889        -1.218738        -1.214906
 O        -0.276327        -1.001590        -0.656650
 C         0.004286         0.074116         0.160490
 O         0.766720        -0.047702         1.087491
 C        -0.685106         1.370090        -0.272521
 C        -1.917560         1.315931        -1.317877
 H        -3.683873        -1.304215        -2.870240
 H        -4.342945         0.456389        -2.612239
 H        -2.855282         0.243041        -3.639898
 H        -2.794197        -0.382561         0.578271
 H        -3.643702        -1.570844        -0.405471
 H        -1.560932        -2.128095        -1.858383
 H        -0.897105         1.795750         0.709046
 H         0.137705         1.902463        -0.806867
 H        -2.770042         1.780399        -0.741465
 H        -1.806349         1.874149        -2.206678
