19
Iteration:  1046charge 0 multiplicity 1
 C        -2.997407        -0.016782        -2.957267
 C        -2.455704        -0.106469        -1.447362
 C        -3.080479        -1.152325        -0.598542
 C        -1.644142        -1.271446        -1.094175
 O        -0.680408        -1.062219        -0.034635
 C        -0.028248         0.135266         0.070208
 O         1.155049         0.078341         0.339760
 C        -0.738590         1.458235        -0.095487
 C        -2.004841         1.285424        -1.033659
 H        -3.445679        -0.976369        -3.233134
 H        -3.728786         0.802420        -2.788200
 H        -2.093375         0.023949        -3.717222
 H        -3.201724        -0.899026         0.495621
 H        -3.835721        -1.796171        -1.073778
 H        -1.301312        -2.154685        -1.714837
 H        -1.101174         1.533111         0.957582
 H        -0.076036         2.147142        -0.388905
 H        -2.855869         1.840492        -0.392135
 H        -1.786378         1.825946        -1.999228
