19
Iteration:   302charge 0 multiplicity 1
 C        -3.526861         0.004468        -2.700592
 C        -2.502798        -0.081066        -1.519387
 C        -2.875723        -0.927300        -0.290237
 C        -1.619975        -1.260978        -1.216281
 O        -0.329021        -0.987726        -0.641804
 C         0.002561         0.113390         0.159181
 O         0.884662         0.045710         0.981282
 C        -0.897861         1.241008        -0.149758
 C        -1.593084         1.197408        -1.490888
 H        -4.161922        -0.838189        -2.891044
 H        -4.110224         0.920797        -2.532192
 H        -2.944642         0.002891        -3.658046
 H        -2.721381        -0.794464         0.772925
 H        -3.742641        -1.567904        -0.546688
 H        -1.411852        -2.139095        -1.774634
 H        -1.519806         1.190866         0.584969
 H        -0.310038         2.219565         0.060715
 H        -2.208567         2.095541        -1.490083
 H        -0.814184         1.128222        -2.309694
