19
Iteration:  2344
 C        -2.714569        -0.096882        -2.939058
 C        -2.370940        -0.036691        -1.476768
 C        -3.167806        -0.924382        -0.526200
 C        -1.707112        -1.282763        -0.981136
 O        -0.643465        -1.177826        -0.025815
 C        -0.052940         0.155895         0.013718
 O         1.147806         0.121439        -0.041990
 C        -1.040031         1.288409         0.207421
 C        -1.931669         1.335424        -1.015236
 H        -2.817997        -1.130859        -3.280514
 H        -3.687826         0.448450        -3.158493
 H        -1.841882         0.284036        -3.467699
 H        -3.185589        -0.753414         0.574640
 H        -3.985677        -1.555234        -0.877322
 H        -1.647236        -2.126921        -1.609703
 H        -1.609275         1.107276         1.198027
 H        -0.576167         2.181930         0.161072
 H        -2.842726         2.019819        -0.828052
 H        -1.278244         1.746387        -1.878004
