19
Iteration:   816charge 0 multiplicity 1
 C        -2.983587         0.135820        -2.769473
 C        -2.499683        -0.016465        -1.373769
 C        -3.106696        -1.201647        -0.626399
 C        -1.656441        -1.225341        -1.109085
 O        -0.466705        -1.112227        -0.250952
 C         0.018200         0.101560        -0.019648
 O         0.839240         0.177555         0.903754
 C        -0.543357         1.290547        -0.937313
 C        -2.068416         1.175843        -0.692607
 H        -2.702366        -0.634274        -3.368596
 H        -4.006072         0.414884        -2.834537
 H        -2.448102         0.953987        -3.262329
 H        -3.325851        -0.824823         0.454316
 H        -3.997234        -1.822075        -0.943899
 H        -1.527930        -1.916496        -1.876000
 H        -0.040277         2.255663        -0.574707
 H        -0.224595         0.966621        -2.029303
 H        -2.231042         1.000321         0.444310
 H        -2.605816         2.024945        -0.949397
