19
Iteration:  3065
 C        -3.501148        -0.163722        -2.701542
 C        -2.479359        -0.030786        -1.537630
 C        -2.687177        -0.846510        -0.254315
 C        -1.616122        -1.251170        -1.244604
 O        -0.213947        -0.931696        -0.800372
 C        -0.097713         0.053127         0.161019
 O         0.562084        -0.083424         1.207913
 C        -0.632199         1.351733        -0.320170
 C        -1.752576         1.261855        -1.399561
 H        -3.474486        -1.155112        -3.172241
 H        -4.533500         0.005068        -2.294688
 H        -3.269871         0.519075        -3.474672
 H        -2.292290        -0.526151         0.681581
 H        -3.607028        -1.405639         0.007741
 H        -1.581475        -2.253298        -1.835892
 H        -1.000286         1.695555         0.665682
 H         0.180643         1.926113        -0.829939
 H        -2.685661         2.069920        -1.153347
 H        -1.336100         1.459273        -2.399703
