19
Iteration:  2992
 C        -3.543101        -0.168000        -2.666571
 C        -2.468709        -0.022618        -1.574311
 C        -2.684875        -0.888543        -0.331477
 C        -1.559896        -1.224923        -1.220363
 O        -0.235759        -0.978036        -0.746134
 C        -0.156962         0.033569         0.182928
 O         0.640730        -0.056835         1.078709
 C        -0.777150         1.394399        -0.183722
 C        -1.667466         1.308779        -1.407049
 H        -4.184282        -1.070612        -2.447757
 H        -4.275079         0.661677        -2.555358
 H        -3.105786        -0.350640        -3.651094
 H        -2.398540        -0.658031         0.663458
 H        -3.552190        -1.561367        -0.280602
 H        -1.508323        -2.108459        -1.880370
 H        -1.322450         1.765016         0.634845
 H         0.165464         1.948917        -0.437821
 H        -2.182110         2.132374        -1.492098
 H        -1.044235         1.196692        -2.315504
