19
Iteration:  2739charge 0 multiplicity 1
 C        -2.800856        -0.071406        -3.075337
 C        -2.457933        -0.046116        -1.549876
 C        -3.114631        -0.974773        -0.424896
 C        -1.760322        -1.256599        -0.875332
 O        -0.620049        -1.116535        -0.054967
 C         0.018587         0.128619         0.014252
 O         1.235788         0.106286         0.103313
 C        -1.021741         1.234254         0.185043
 C        -1.945702         1.334361        -1.128100
 H        -2.905822        -1.027493        -3.556682
 H        -3.774093         0.428679        -3.218039
 H        -1.994437         0.397693        -3.570688
 H        -3.177131        -0.488560         0.500116
 H        -3.988660        -1.559699        -0.749605
 H        -1.715591        -2.142458        -1.450711
 H        -1.694240         1.011476         0.920711
 H        -0.636789         2.191192         0.481052
 H        -2.780900         1.976802        -0.733254
 H        -1.411015         1.781894        -2.000311
