19
Iteration:  3090charge 0 multiplicity 1
 C        -3.418283        -0.193522        -2.684733
 C        -2.415503        -0.013811        -1.556975
 C        -2.844241        -0.948089        -0.375332
 C        -1.610546        -1.178312        -1.106008
 O        -0.264599        -1.090429        -0.680840
 C        -0.020956         0.115590         0.129826
 O         0.663820        -0.082509         1.073025
 C        -0.674059         1.404680        -0.329567
 C        -1.806426         1.355766        -1.334468
 H        -3.559175        -1.231317        -3.051170
 H        -4.348640         0.217068        -2.247687
 H        -3.287759         0.472530        -3.523281
 H        -2.903100        -0.586729         0.661958
 H        -3.528053        -1.746483        -0.461887
 H        -1.678322        -1.925771        -1.806191
 H        -0.999923         1.703283         0.616624
 H         0.142042         2.104301        -0.746658
 H        -2.634042         2.295834        -1.194864
 H        -1.331294         1.537969        -2.279798
