19
Iteration:   687
 C        -3.117766        -0.064971        -2.906902
 C        -2.479418         0.003643        -1.536324
 C        -2.971927        -1.043244        -0.424230
 C        -1.642478        -1.221944        -1.069019
 O        -0.457138        -1.185367        -0.317102
 C        -0.021295         0.057364         0.121766
 O         0.991429        -0.042738         0.802753
 C        -0.630006         1.447381        -0.498423
 C        -2.138416         1.381341        -1.013981
 H        -3.358832        -1.073778        -3.316254
 H        -4.173421         0.417363        -2.940186
 H        -2.494369         0.679167        -3.574948
 H        -2.908324        -0.578033         0.657098
 H        -3.890127        -1.704635        -0.654288
 H        -1.660824        -1.875757        -1.867870
 H        -0.320187         2.246698         0.221090
 H         0.068434         1.473196        -1.223993
 H        -2.808726         1.678923        -0.194052
 H        -2.208155         2.247481        -1.790780
