19
Iteration:  3548charge 0 multiplicity 1
 C        -3.164996        -0.011209        -2.954975
 C        -2.527247        -0.045761        -1.581557
 C        -3.057667        -0.973332        -0.426722
 C        -1.726359        -1.225428        -1.119065
 O        -0.456429        -1.140353        -0.459861
 C         0.048924         0.056986         0.128416
 O         0.969344        -0.001538         0.893315
 C        -0.520217         1.352860        -0.393259
 C        -2.034457         1.339593        -0.903562
 H        -3.427264        -1.052709        -3.219253
 H        -4.164908         0.498692        -2.782899
 H        -2.568275         0.377334        -3.751407
 H        -2.942191        -0.561205         0.560519
 H        -3.854335        -1.724032        -0.682833
 H        -1.570294        -2.008435        -1.889701
 H        -0.191825         2.268757         0.095518
 H         0.058909         1.360834        -1.386929
 H        -2.849017         1.537408        -0.064979
 H        -2.135841         2.230242        -1.643961
