19
Iteration:  3606
 C        -3.063384        -0.034694        -2.815800
 C        -2.422123        -0.033008        -1.495759
 C        -3.115386        -1.023340        -0.542746
 C        -1.722050        -1.337269        -1.093621
 O        -0.609016        -1.137248        -0.254501
 C        -0.003055         0.081919         0.043729
 O         1.090054         0.074765         0.529049
 C        -0.692294         1.357772        -0.115970
 C        -1.896065         1.380875        -1.129439
 H        -3.540129        -0.964469        -2.917176
 H        -3.831438         0.708035        -2.870425
 H        -2.450013         0.134971        -3.647317
 H        -3.279627        -0.916786         0.567818
 H        -3.989997        -1.499976        -0.973206
 H        -1.550806        -2.116474        -1.815090
 H        -1.150287         1.415010         0.963379
 H         0.016978         2.111160        -0.155492
 H        -2.591152         2.007173        -0.603925
 H        -1.578838         1.996730        -1.997039
