19
Iteration:   318
 C        -3.428645        -0.033953        -2.719250
 C        -2.526005        -0.011043        -1.540621
 C        -2.800382        -0.959073        -0.330852
 C        -1.620997        -1.178329        -1.124025
 O        -0.273611        -1.036597        -0.631187
 C        -0.036192         0.053289         0.158545
 O         0.855184        -0.025915         0.959239
 C        -0.849148         1.310885        -0.173169
 C        -1.743395         1.211270        -1.437593
 H        -3.984203        -1.022440        -2.842291
 H        -4.341468         0.647719        -2.576547
 H        -2.920422         0.294726        -3.619803
 H        -2.711994        -0.386970         0.625628
 H        -3.624742        -1.700717        -0.376594
 H        -1.702236        -2.079367        -1.793719
 H        -1.544967         1.698855         0.766036
 H        -0.179280         2.099505        -0.259430
 H        -2.303374         2.154813        -1.652577
 H        -1.151166         1.160305        -2.361623
