19
Iteration:   422charge 0 multiplicity 1
 C        -3.201119         0.041261        -2.833013
 C        -2.465979        -0.099313        -1.496060
 C        -3.010013        -1.024867        -0.477558
 C        -1.680102        -1.369212        -1.050993
 O        -0.502693        -1.164618        -0.296859
 C         0.012266         0.115066         0.012451
 O         0.981424         0.081818         0.742039
 C        -0.661140         1.419069        -0.277657
 C        -1.925881         1.284147        -1.166711
 H        -3.807976        -0.787285        -3.041579
 H        -3.803938         0.936149        -2.805206
 H        -2.568939         0.139734        -3.746516
 H        -2.965099        -0.767548         0.550315
 H        -3.898492        -1.538468        -0.700039
 H        -1.407362        -2.116483        -1.899968
 H        -0.959380         1.879609         0.830426
 H         0.101454         2.219691        -0.729874
 H        -2.744560         1.829087        -0.794532
 H        -1.644540         1.714431        -2.152510
