19
Iteration:  2357charge 0 multiplicity 1
 C        -2.703439        -0.113578        -2.959144
 C        -2.411165        -0.027274        -1.461057
 C        -3.151378        -0.838391        -0.498489
 C        -1.749572        -1.292209        -0.853415
 O        -0.592435        -1.147155        -0.101580
 C        -0.054715         0.028944         0.030145
 O         1.152889         0.208194        -0.032310
 C        -1.021402         1.185166         0.233077
 C        -1.945306         1.325810        -1.099190
 H        -2.735588        -1.168160        -3.219208
 H        -3.734508         0.361895        -3.287012
 H        -2.060943         0.409746        -3.660378
 H        -3.393964        -0.508698         0.552787
 H        -3.945635        -1.450337        -1.027126
 H        -1.446031        -1.999234        -1.593849
 H        -1.750245         0.940566         1.022266
 H        -0.436334         1.860152         0.696355
 H        -2.909628         2.043191        -0.969874
 H        -1.331877         1.900593        -1.932088
