19
Iteration:    86
 C        -2.862254        -0.091397        -2.938018
 C        -2.399411        -0.036477        -1.525902
 C        -3.117790        -0.798280        -0.445809
 C        -1.714404        -1.227953        -0.962747
 O        -0.624339        -1.221607        -0.028844
 C        -0.027737         0.020339         0.093175
 O         1.191295         0.172824         0.060554
 C        -1.027693         1.167475         0.142407
 C        -1.877696         1.341077        -1.188342
 H        -3.535139        -0.916657        -3.178910
 H        -3.509177         0.832361        -3.252504
 H        -1.962201         0.111450        -3.589781
 H        -3.058193        -0.556882         0.562570
 H        -3.895753        -1.501623        -0.749913
 H        -1.684690        -2.171445        -1.458132
 H        -1.746223         1.065198         0.887595
 H        -0.444508         2.064731         0.480433
 H        -2.749719         2.089674        -1.152968
 H        -1.381429         1.849304        -2.007409
