19
Iteration:   461charge 0 multiplicity 1
 C        -3.190516        -0.076809        -2.952758
 C        -2.535549         0.005554        -1.507822
 C        -3.034257        -0.958166        -0.527271
 C        -1.649561        -1.213869        -1.117367
 O        -0.561055        -1.132136        -0.160801
 C         0.021524         0.056058         0.094868
 O         1.148061         0.082330         0.572262
 C        -0.782824         1.308297        -0.125212
 C        -1.908361         1.285073        -1.120181
 H        -3.814373        -1.067082        -3.121293
 H        -3.952017         0.751860        -3.054414
 H        -2.408980        -0.263225        -3.710486
 H        -2.860001        -0.717643         0.546506
 H        -3.907753        -1.710213        -0.659966
 H        -1.432348        -1.787804        -1.933122
 H        -1.112508         1.547466         0.796176
 H        -0.066865         2.049712        -0.401331
 H        -2.638963         2.114472        -0.732599
 H        -1.465166         1.591172        -2.086446
