19
Iteration:  2197charge 0 multiplicity 1
 C        -3.353557        -0.155517        -2.890321
 C        -2.492081        -0.043549        -1.629353
 C        -2.890960        -0.814485        -0.331675
 C        -1.678086        -1.211365        -1.124100
 O        -0.366370        -1.035196        -0.619370
 C         0.001520         0.039424         0.224879
 O         1.071273         0.137889         0.781540
 C        -1.021199         1.168438         0.088493
 C        -1.734518         1.206473        -1.332074
 H        -3.458665        -1.242678        -3.084079
 H        -4.270765         0.322085        -2.697828
 H        -2.795447         0.233796        -3.784771
 H        -2.831465        -0.292509         0.649665
 H        -3.863460        -1.259997        -0.399772
 H        -1.704709        -2.027818        -1.808966
 H        -1.742748         1.248089         0.947356
 H        -0.310548         2.085182         0.062652
 H        -2.473251         2.040430        -1.277852
 H        -1.014787         1.563885        -2.123457
