19
Iteration:  1128
 C        -3.216071        -0.193963        -2.848450
 C        -2.486917        -0.074685        -1.565330
 C        -2.881018        -0.772940        -0.319409
 C        -1.691930        -1.181281        -1.024067
 O        -0.346332        -1.040993        -0.630441
 C        -0.072585         0.109774         0.170670
 O         1.031878         0.049227         0.651093
 C        -1.022822         1.189659         0.087704
 C        -1.745946         1.252452        -1.301729
 H        -3.469141        -1.245736        -3.201294
 H        -4.158010         0.295767        -3.057625
 H        -2.560039         0.291962        -3.494232
 H        -3.043888        -0.214719         0.624956
 H        -3.769126        -1.438259        -0.551867
 H        -1.829711        -1.992191        -1.643018
 H        -1.789209         1.008771         0.807098
 H        -0.637930         2.341082         0.336492
 H        -2.437134         2.047280        -1.324283
 H        -1.079192         1.412456        -2.073151
