19
Iteration:  2153charge 0 multiplicity 1
 C        -3.421442        -0.019263        -2.623039
 C        -2.359611        -0.051753        -1.510054
 C        -2.818611        -1.012122        -0.362007
 C        -1.612503        -1.274657        -1.276251
 O        -0.329293        -1.034914        -0.600189
 C        -0.073139         0.127429         0.145097
 O         0.842599         0.063553         0.963098
 C        -0.938284         1.320775        -0.193491
 C        -1.710447         1.251839        -1.420043
 H        -4.085083        -0.899510        -2.724610
 H        -3.987709         0.848278        -2.412718
 H        -2.929495        -0.000569        -3.643257
 H        -2.499156        -0.936926         0.712561
 H        -3.691473        -1.655235        -0.503098
 H        -1.563183        -2.134559        -1.866235
 H        -1.632271         1.103929         0.666609
 H        -0.456507         2.318613        -0.090347
 H        -2.370477         2.145198        -1.560482
 H        -1.007633         1.235637        -2.354855
