19
Iteration:   152
 C        -2.878341        -0.042788        -2.966381
 C        -2.419257        -0.021902        -1.490115
 C        -3.183978        -0.998955        -0.553952
 C        -1.731476        -1.227092        -0.972593
 O        -0.666750        -1.126213         0.012327
 C         0.050065         0.027537        -0.030890
 O         1.222293         0.090155         0.245375
 C        -0.859221         1.275340        -0.045618
 C        -2.020489         1.350723        -1.037616
 H        -3.300755        -0.997849        -3.133405
 H        -3.779068         0.639715        -3.159736
 H        -2.170775         0.376938        -3.654749
 H        -3.074180        -0.838373         0.427772
 H        -3.925902        -1.639532        -0.934537
 H        -1.479331        -2.075835        -1.544638
 H        -1.185934         1.321438         1.015231
 H        -0.179368         2.110374        -0.130382
 H        -2.836908         2.045450        -0.776871
 H        -1.666425         1.863816        -1.914624
