19
Iteration:   855charge 0 multiplicity 1
 C        -2.999666         0.069571        -2.933234
 C        -2.640187        -0.030446        -1.522077
 C        -3.035652        -1.226895        -0.577665
 C        -1.655431        -1.191525        -1.068678
 O        -0.587754        -1.127296        -0.109094
 C         0.020752         0.077011         0.028374
 O         1.054095         0.143076         0.672318
 C        -0.558292         1.320108        -0.527184
 C        -2.094602         1.280461        -0.816427
 H        -3.209370        -1.018156        -3.416423
 H        -4.050338         0.521075        -3.000402
 H        -2.282205         0.608376        -3.576021
 H        -3.158600        -0.852427         0.410242
 H        -3.696100        -1.938202        -0.940973
 H        -1.280944        -1.840117        -1.932426
 H        -0.336433         2.024024         0.252685
 H        -0.043748         1.614691        -1.370933
 H        -2.582637         1.385804         0.130707
 H        -2.491077         2.247778        -1.402183
