19
Iteration:  1575
 C        -2.977091        -0.028518        -2.931539
 C        -2.516545        -0.058817        -1.512738
 C        -3.020481        -1.123577        -0.451191
 C        -1.647650        -1.186737        -1.047451
 O        -0.468762        -1.021686        -0.370855
 C         0.001614         0.101194         0.114941
 O         0.977588         0.053316         0.798532
 C        -0.685046         1.297560        -0.541538
 C        -2.163511         1.291265        -0.865148
 H        -2.779815        -0.985190        -3.495802
 H        -4.038269         0.113958        -2.990869
 H        -2.480371         0.766063        -3.500470
 H        -3.071557        -0.724636         0.564917
 H        -3.704219        -1.857352        -0.799536
 H        -1.572739        -2.090662        -1.634963
 H        -0.329185         2.095976         0.175263
 H        -0.173017         1.544819        -1.616059
 H        -2.758965         1.608360        -0.021606
 H        -2.353938         2.100398        -1.546438
