19
Iteration:  1497charge 0 multiplicity 1
 C        -3.052568         0.031361        -2.966451
 C        -2.531799        -0.105512        -1.488293
 C        -2.990971        -1.252164        -0.543339
 C        -1.591192        -1.322733        -1.064789
 O        -0.639341        -1.063669        -0.072080
 C         0.047923         0.105834         0.108266
 O         1.143023         0.118816         0.531957
 C        -0.742547         1.383928        -0.308255
 C        -2.139733         1.335468        -0.992313
 H        -3.630687        -0.752599        -3.445091
 H        -3.672775         0.887849        -3.168873
 H        -2.188726         0.330018        -3.649489
 H        -3.151133        -0.844967         0.493797
 H        -3.747044        -1.704922        -1.301499
 H        -1.251722        -2.039376        -1.839162
 H        -0.731851         1.834694         0.825884
 H        -0.087325         2.173665        -0.973626
 H        -2.814344         1.662027        -0.286791
 H        -1.998039         2.036541        -1.787434
