19
Iteration:   171charge 0 multiplicity 1
 C        -2.907356        -0.073603        -2.981674
 C        -2.466861        -0.032398        -1.528790
 C        -3.060192        -0.889813        -0.424035
 C        -1.721897        -1.258374        -1.004194
 O        -0.647362        -1.196513        -0.099745
 C         0.029121         0.076445        -0.025618
 O         1.164223         0.091540         0.359094
 C        -0.833508         1.252039        -0.149427
 C        -2.007359         1.343957        -1.009116
 H        -2.977847        -1.132062        -3.300038
 H        -3.869197         0.445002        -3.259189
 H        -2.182990         0.580946        -3.559797
 H        -3.196255        -0.267243         0.495476
 H        -3.886547        -1.583133        -0.748073
 H        -1.701088        -2.008914        -1.772948
 H        -1.259858         1.202584         1.052830
 H        -0.034515         2.164389        -0.066712
 H        -2.851725         1.758939        -0.443092
 H        -1.914072         2.079528        -1.924438
