19
Iteration:  4186charge 0 multiplicity 1
 C        -3.116255        -0.039174        -2.961966
 C        -2.541311         0.017799        -1.536157
 C        -2.937081        -0.895119        -0.327977
 C        -1.722956        -1.200603        -1.073480
 O        -0.457206        -1.203934        -0.329390
 C         0.028861         0.069565         0.097756
 O         1.135122         0.020795         0.517050
 C        -0.980793         1.242206         0.088714
 C        -1.907221         1.340379        -1.295251
 H        -3.685055        -0.996066        -3.103890
 H        -3.737440         0.889482        -3.221522
 H        -2.377528         0.229140        -3.737154
 H        -2.766660        -0.333875         0.600477
 H        -3.846902        -1.500618        -0.483531
 H        -1.733586        -2.089389        -1.655013
 H        -1.531791         1.084141         1.020799
 H        -0.298006         2.256606         0.206597
 H        -2.679336         2.108040        -1.210297
 H        -1.287353         1.441536        -2.168813
