19
Iteration:   685
 C        -3.114860        -0.053597        -2.915449
 C        -2.473336        -0.003014        -1.521693
 C        -2.976489        -1.037499        -0.412784
 C        -1.661281        -1.202127        -1.065026
 O        -0.455790        -1.188962        -0.325059
 C        -0.015630         0.056153         0.126950
 O         1.006621        -0.039150         0.798857
 C        -0.636441         1.428005        -0.485137
 C        -2.134802         1.375898        -1.039923
 H        -3.257864        -1.079425        -3.227325
 H        -4.149744         0.412284        -3.043165
 H        -2.507675         0.681388        -3.586483
 H        -2.959269        -0.582361         0.645546
 H        -3.905809        -1.696769        -0.609230
 H        -1.645041        -1.937939        -1.919451
 H        -0.393312         2.232277         0.217655
 H         0.037867         1.554204        -1.221705
 H        -2.868341         1.653629        -0.166223
 H        -2.230468         2.222798        -1.753078
