19
Iteration:  4163charge 0 multiplicity 1
 C        -3.054202        -0.064448        -2.877948
 C        -2.383551        -0.117480        -1.580576
 C        -3.177553        -0.781713        -0.423711
 C        -1.802367        -1.280300        -0.965452
 O        -0.504177        -1.061747        -0.432369
 C        -0.005078         0.084899         0.086216
 O         1.163917         0.091141         0.394871
 C        -1.007061         1.184434         0.173584
 C        -1.710591         1.273371        -1.190193
 H        -3.326118        -1.107041        -3.122437
 H        -3.965432         0.618814        -2.894195
 H        -2.451954         0.468577        -3.667368
 H        -3.059871        -0.510502         0.639831
 H        -3.928348        -1.504921        -0.749103
 H        -1.705008        -2.274045        -1.339365
 H        -1.739196         1.085282         0.950863
 H        -0.427989         2.221644         0.314503
 H        -2.470512         2.010605        -1.062580
 H        -1.013886         1.522604        -1.992543
