19
Iteration:  2414charge 0 multiplicity 1
 C        -2.933782        -0.120058        -2.957734
 C        -2.413201        -0.097568        -1.559216
 C        -3.166370        -0.802316        -0.406066
 C        -1.742481        -1.282630        -0.912133
 O        -0.498591        -1.118904        -0.371515
 C        -0.042815         0.095584         0.122722
 O         1.176853         0.226166         0.260803
 C        -1.145826         1.197251         0.193708
 C        -1.715043         1.260116        -1.152965
 H        -3.369013        -1.150366        -3.155510
 H        -3.810617         0.571704        -3.001511
 H        -2.169756         0.029076        -3.735218
 H        -3.342662        -0.383912         0.581047
 H        -3.836308        -1.630200        -0.590924
 H        -1.703103        -2.279567        -1.474126
 H        -1.802708         0.944404         0.926655
 H        -0.544394         2.115473         0.469245
 H        -2.600399         2.015873        -1.087636
 H        -0.975619         1.639076        -1.960066
