19
Iteration:  3231charge 0 multiplicity 1
 C        -2.703580        -0.090681        -2.963052
 C        -2.281608        -0.051861        -1.453749
 C        -3.179703        -0.770224        -0.554155
 C        -1.762936        -1.282927        -0.854237
 O        -0.612010        -1.230832        -0.054871
 C        -0.079982         0.064570        -0.016689
 O         1.134999         0.246229        -0.071778
 C        -1.101696         1.140811         0.250462
 C        -1.844915         1.323732        -1.052017
 H        -2.836743        -1.178320        -3.248543
 H        -3.770774         0.372515        -2.934072
 H        -2.071608         0.444914        -3.638541
 H        -3.442920        -0.356529         0.417949
 H        -4.131681        -1.306722        -0.831546
 H        -1.750744        -2.163533        -1.536230
 H        -1.824781         0.778294         0.948797
 H        -0.489204         2.079262         0.552056
 H        -2.604997         1.986230        -0.975366
 H        -1.210382         1.684114        -1.866168
