19
Iteration:   778
 C        -3.085436         0.319732        -2.699969
 C        -2.524376        -0.077613        -1.388809
 C        -2.991398        -1.267331        -0.560465
 C        -1.601017        -1.295107        -1.257919
 O        -0.541942        -1.205846        -0.208828
 C        -0.014889         0.102673        -0.021301
 O         0.676117         0.357095         0.959491
 C        -0.427759         1.142140        -0.985076
 C        -1.951172         1.207729        -0.712665
 H        -3.324099        -0.704639        -3.252790
 H        -4.042392         0.917300        -2.781972
 H        -2.259965         0.891781        -3.155924
 H        -2.842435        -1.137804         0.436101
 H        -3.835142        -1.791376        -0.895992
 H        -1.189014        -2.002267        -2.066870
 H         0.013699         2.066922        -0.716544
 H        -0.165269         0.987336        -2.055477
 H        -2.038653         1.281804         0.318912
 H        -2.549169         2.072246        -1.156269
