19
Iteration:  2530
 C        -3.398401        -0.116408        -2.713966
 C        -2.506806        -0.008509        -1.468998
 C        -2.685160        -0.960893        -0.267308
 C        -1.551443        -1.193491        -1.228695
 O        -0.252838        -1.102118        -0.674825
 C        -0.138818         0.033731         0.146669
 O         0.608902        -0.045699         1.110028
 C        -0.614865         1.429507        -0.401884
 C        -1.878125         1.325576        -1.345323
 H        -3.366531        -1.094324        -3.227760
 H        -4.529941        -0.017581        -2.599602
 H        -2.928905         0.504742        -3.473481
 H        -2.376789        -0.422929         0.694784
 H        -3.587227        -1.642742        -0.248067
 H        -1.696775        -2.117511        -1.894590
 H        -0.955652         1.983734         0.659414
 H        -0.059591         2.087604        -1.036292
 H        -2.621652         1.966817        -1.074562
 H        -1.515545         1.584844        -2.250528
