19
Iteration:  1043charge 0 multiplicity 1
 C        -2.974636        -0.035730        -2.945590
 C        -2.460979        -0.094521        -1.459266
 C        -3.102385        -1.137552        -0.626061
 C        -1.651744        -1.260649        -1.106028
 O        -0.668272        -1.049232        -0.019952
 C        -0.035525         0.157193         0.083234
 O         1.140164         0.083911         0.312497
 C        -0.731663         1.435699        -0.098101
 C        -1.997440         1.242523        -0.998636
 H        -3.527090        -1.047871        -3.273928
 H        -3.684765         0.800858        -2.805759
 H        -2.113294         0.057307        -3.589538
 H        -3.199810        -0.903933         0.466111
 H        -3.880997        -1.885544        -1.115221
 H        -1.376999        -2.081032        -1.649071
 H        -1.032196         1.575578         1.006114
 H        -0.034833         2.209817        -0.369426
 H        -2.706477         1.782162        -0.346346
 H        -1.766848         1.842081        -2.047037
