19
Iteration:  1835charge 0 multiplicity 1
 C        -3.014758        -0.030534        -2.963322
 C        -2.415694        -0.040958        -1.532772
 C        -3.016656        -1.272486        -0.734395
 C        -1.617274        -1.229014        -1.023783
 O        -0.744319        -0.966192         0.071159
 C         0.021034         0.139161         0.084564
 O         1.153636         0.028292         0.443392
 C        -0.662801         1.449480        -0.403861
 C        -2.187147         1.261040        -0.749176
 H        -3.357838        -1.006984        -3.319323
 H        -3.778567         0.655739        -3.219597
 H        -2.225702         0.149290        -3.690059
 H        -3.301497        -1.133895         0.265305
 H        -3.522026        -2.001126        -1.285192
 H        -1.115235        -2.017910        -1.659988
 H        -0.401687         2.376646         0.178816
 H         0.016292         1.761248        -1.449730
 H        -2.788591         1.388459         0.205287
 H        -2.582961         2.103453        -1.220486
