19
Iteration:  3948
 C        -3.098430         0.094765        -2.809707
 C        -2.516026        -0.045267        -1.450700
 C        -2.997605        -1.086328        -0.523209
 C        -1.674328        -1.252724        -1.158516
 O        -0.633501        -1.063364        -0.330354
 C         0.013757         0.105105         0.060495
 O         0.944146         0.064346         0.864178
 C        -0.477919         1.298956        -0.701946
 C        -2.046907         1.204032        -0.781730
 H        -2.816702        -0.887661        -3.379739
 H        -4.205189         0.303538        -3.035975
 H        -2.384148         0.880592        -3.314844
 H        -3.000306        -0.798787         0.570780
 H        -3.990168        -1.573082        -0.852385
 H        -1.314392        -1.926181        -1.926011
 H         0.066652         2.095012        -0.278975
 H        -0.176172         1.202240        -1.689345
 H        -2.467062         1.251456         0.150434
 H        -2.346078         2.199267        -1.237607
