19
Iteration:  4538
 C        -2.815387        -0.137373        -3.102818
 C        -2.451574         0.011266        -1.538921
 C        -3.206532        -0.739304        -0.437337
 C        -1.897589        -1.262271        -0.957373
 O        -0.593918        -1.157644        -0.178830
 C        -0.058318         0.019377         0.112455
 O         1.169327         0.250121         0.009719
 C        -0.952885         1.138700         0.318539
 C        -1.742620         1.253053        -1.010238
 H        -3.384100        -1.072506        -3.423622
 H        -3.415612         0.736961        -3.461594
 H        -1.799196        -0.281089        -3.511358
 H        -2.977670        -0.416147         0.586923
 H        -4.001666        -1.408210        -0.757991
 H        -1.844848        -2.235661        -1.360206
 H        -1.629600         0.914285         1.065834
 H        -0.414699         1.989206         0.619422
 H        -2.523191         1.926167        -0.682646
 H        -0.943794         1.559191        -1.843013
