19
Iteration:  2353charge 0 multiplicity 1
 C        -2.696974        -0.092353        -2.961477
 C        -2.403207        -0.026790        -1.436351
 C        -3.167461        -0.843588        -0.512826
 C        -1.708494        -1.307897        -0.883309
 O        -0.617191        -1.158223        -0.080145
 C        -0.054723         0.100610         0.017164
 O         1.145390         0.167504        -0.037619
 C        -1.012845         1.192163         0.220750
 C        -1.968980         1.323527        -1.092392
 H        -2.871894        -1.174093        -3.150919
 H        -3.659675         0.273882        -3.263630
 H        -1.975851         0.438637        -3.605964
 H        -3.284929        -0.681526         0.560315
 H        -3.877397        -1.462743        -0.981341
 H        -1.511761        -2.040753        -1.661445
 H        -1.844885         1.087404         1.080176
 H        -0.350472         2.084337         0.579533
 H        -2.849560         1.928810        -0.978899
 H        -1.295836         1.837359        -1.770896
