19
Iteration:   454charge 0 multiplicity 1
 C        -3.203233        -0.059177        -2.922019
 C        -2.502912         0.012147        -1.490394
 C        -3.004047        -1.003599        -0.496088
 C        -1.645059        -1.202266        -1.072010
 O        -0.568556        -1.170905        -0.175558
 C         0.013459         0.031657         0.116084
 O         1.121378         0.111874         0.586893
 C        -0.755031         1.272745        -0.172305
 C        -1.940709         1.309092        -1.192643
 H        -3.885149        -0.831474        -2.970957
 H        -3.765262         0.816218        -3.103463
 H        -2.436424         0.002672        -3.722332
 H        -2.967640        -0.782798         0.545603
 H        -3.787153        -1.598234        -0.844174
 H        -1.284938        -1.774749        -1.991162
 H        -1.121983         1.662705         0.898449
 H         0.005068         1.986114        -0.471943
 H        -2.695039         1.963122        -0.871313
 H        -1.678475         1.754204        -2.137906
