19
Iteration:  1202charge 0 multiplicity 1
 C        -3.389259        -0.062957        -2.798945
 C        -2.505038        -0.049915        -1.549422
 C        -2.825467        -1.082143        -0.419313
 C        -1.554640        -1.215806        -1.262518
 O        -0.381443        -1.184545        -0.363666
 C         0.029863         0.036301         0.128927
 O         0.950373         0.053395         0.957846
 C        -0.786438         1.429113        -0.276193
 C        -1.936891         1.375232        -1.301841
 H        -4.171953        -0.832338        -2.925224
 H        -4.096274         0.791081        -2.708223
 H        -2.845872         0.191273        -3.776441
 H        -2.646001        -0.674316         0.592667
 H        -3.675549        -1.762158        -0.556209
 H        -1.396592        -1.987656        -1.960396
 H        -1.223378         1.854548         0.597482
 H        -0.124505         2.131802        -0.637278
 H        -2.825334         2.013655        -0.848212
 H        -1.697348         1.791760        -2.371546
