19
Iteration:  2416charge 0 multiplicity 1
 C        -2.944540        -0.112518        -2.967469
 C        -2.400017        -0.092213        -1.538963
 C        -3.159421        -0.808522        -0.401567
 C        -1.747203        -1.283901        -0.919224
 O        -0.488969        -1.122294        -0.370692
 C        -0.040554         0.085742         0.103480
 O         1.174854         0.220930         0.280660
 C        -1.145871         1.207312         0.194043
 C        -1.724724         1.269383        -1.166825
 H        -3.436097        -1.135268        -3.084343
 H        -3.788444         0.525397        -3.017189
 H        -2.162117         0.040439        -3.753505
 H        -3.347209        -0.434450         0.599406
 H        -3.802520        -1.615689        -0.604308
 H        -1.725096        -2.226630        -1.505933
 H        -1.833197         0.950917         0.965988
 H        -0.541970         2.200390         0.457228
 H        -2.559705         1.971724        -1.161491
 H        -1.045703         1.554029        -1.956142
