19
Iteration:   145charge 0 multiplicity 1
 C        -2.904287        -0.017383        -2.963573
 C        -2.470673        -0.025663        -1.481139
 C        -3.197948        -1.017343        -0.607359
 C        -1.714545        -1.275642        -0.967280
 O        -0.647470        -1.141188         0.032517
 C         0.034301         0.106628         0.031252
 O         1.243304         0.052770         0.196705
 C        -0.863910         1.341188        -0.017094
 C        -1.980056         1.346472        -1.030792
 H        -3.292614        -1.083246        -3.131100
 H        -3.701021         0.681217        -3.145305
 H        -2.101563         0.188803        -3.707079
 H        -3.247757        -0.789437         0.548987
 H        -3.973449        -1.677920        -1.016854
 H        -1.475210        -2.069734        -1.737651
 H        -1.229073         1.378515         0.978295
 H        -0.197897         2.155698        -0.118840
 H        -2.831412         2.019632        -0.783594
 H        -1.539737         1.697016        -1.969762
