19
Iteration:  3528
 C        -3.167778        -0.028635        -2.808146
 C        -2.473614         0.044844        -1.439550
 C        -3.038512        -0.999321        -0.513245
 C        -1.659849        -1.220821        -1.116847
 O        -0.397061        -1.163451        -0.450789
 C         0.041789         0.055626         0.011107
 O         0.749994        -0.018584         0.959251
 C        -0.494022         1.346253        -0.680248
 C        -1.999093         1.344014        -0.844553
 H        -3.239608        -1.021120        -3.164859
 H        -4.211921         0.391740        -2.778078
 H        -2.527202         0.446969        -3.458556
 H        -3.171595        -0.721342         0.546795
 H        -3.813601        -1.678435        -1.050350
 H        -1.598354        -2.063680        -1.838594
 H        -0.215254         2.093765         0.171046
 H         0.141895         1.661355        -1.488754
 H        -2.328855         1.618183         0.163565
 H        -2.416363         2.261724        -1.381481
