19
Iteration:  4772
 C        -3.559984        -0.049962        -2.717692
 C        -2.483333        -0.001647        -1.576081
 C        -2.814045        -0.870008        -0.312342
 C        -1.619071        -1.196753        -1.206981
 O        -0.282117        -1.032058        -0.648429
 C         0.029706         0.034176         0.154517
 O         0.730342        -0.075750         1.121899
 C        -0.719445         1.308270        -0.254839
 C        -1.692108         1.285084        -1.451421
 H        -4.301780        -0.867799        -2.509176
 H        -4.093481         0.919285        -2.769810
 H        -3.059714        -0.372959        -3.710458
 H        -2.369555        -0.838020         0.701540
 H        -3.586324        -1.623222        -0.405497
 H        -1.557247        -1.932808        -1.944943
 H        -1.267743         1.332302         0.659991
 H        -0.060718         2.106110        -0.086045
 H        -2.456747         2.093617        -1.378136
 H        -1.339364         1.385271        -2.598733
