19
Iteration:  4232charge 0 multiplicity 1
 C        -3.281563        -0.105231        -2.823920
 C        -2.417643        -0.049199        -1.539627
 C        -3.089713        -0.929425        -0.462692
 C        -1.673053        -1.308897        -1.117051
 O        -0.413804        -1.110552        -0.470522
 C         0.087530         0.057479        -0.000284
 O         1.000189        -0.104312         0.860102
 C        -0.740984         1.535007        -0.182448
 C        -1.901148         1.397764        -1.146485
 H        -3.977607        -0.979255        -2.750064
 H        -3.820737         0.817828        -2.960764
 H        -2.723186        -0.110334        -3.707433
 H        -3.029313        -0.690532         0.586645
 H        -3.795594        -1.700793        -0.743062
 H        -1.605477        -2.247270        -1.735276
 H        -1.057760         1.785327         0.885586
 H         0.049165         2.248553        -0.529485
 H        -2.866018         1.876665        -0.823098
 H        -1.572979         1.848276        -2.032958
