19
Iteration:  2784charge 0 multiplicity 1
 C        -2.607957        -0.134004        -3.008742
 C        -2.331556        -0.022892        -1.507386
 C        -3.258039        -0.987596        -0.596680
 C        -1.811879        -1.316533        -0.815739
 O        -0.639656        -1.187576         0.055960
 C        -0.061393         0.042657         0.076210
 O         1.095978         0.225562        -0.225194
 C        -0.946491         1.276993         0.248950
 C        -1.935365         1.440997        -0.945890
 H        -3.271633        -0.927812        -3.411179
 H        -3.156089         0.721807        -3.412390
 H        -1.719904        -0.369254        -3.518327
 H        -3.620830        -0.686940         0.381114
 H        -3.798454        -1.745238        -1.074068
 H        -1.543204        -1.977448        -1.689791
 H        -1.420913         1.277103         1.203478
 H        -0.281535         2.186434         0.374967
 H        -2.950431         1.913365        -0.679569
 H        -1.333341         1.992397        -1.731952
