19
Iteration:  4143
 C        -3.084598        -0.101428        -2.959755
 C        -2.501405        -0.047531        -1.536729
 C        -3.167365        -0.756335        -0.451943
 C        -1.826870        -1.242870        -0.962462
 O        -0.486759        -1.206397        -0.404718
 C         0.016749        -0.032128         0.184738
 O         1.195677         0.276432         0.303620
 C        -0.973854         1.161164         0.231311
 C        -1.664087         1.235211        -1.133284
 H        -3.120036        -1.187716        -3.222391
 H        -4.122316         0.320240        -3.061557
 H        -2.492077         0.444271        -3.673677
 H        -3.465411        -0.126988         0.410820
 H        -3.973299        -1.347485        -0.927334
 H        -1.752392        -2.042692        -1.654690
 H        -1.731033         1.075699         1.023549
 H        -0.334793         2.185286         0.433087
 H        -2.297513         2.242720        -1.162135
 H        -0.852883         1.307827        -1.865376
