19
Iteration:  2054charge 0 multiplicity 1
 C        -3.201883        -0.195796        -2.859098
 C        -2.530585        -0.009563        -1.477767
 C        -2.813503        -0.947790        -0.277366
 C        -1.632461        -1.176988        -1.196676
 O        -0.343868        -1.111893        -0.595205
 C        -0.040943         0.035757         0.085631
 O         0.778970         0.024951         0.999415
 C        -0.666685         1.355719        -0.445877
 C        -2.026507         1.370676        -1.080125
 H        -3.131614        -1.275624        -3.282336
 H        -4.218983         0.274104        -2.892984
 H        -2.589745         0.553622        -3.561565
 H        -2.650073        -0.609699         0.744500
 H        -3.781921        -1.544901        -0.315749
 H        -1.552854        -2.039998        -1.851487
 H        -0.800221         1.856639         0.498784
 H         0.121799         1.660774        -1.020648
 H        -2.791349         1.987108        -0.502805
 H        -1.842531         1.927811        -2.110796
