19
Iteration:  3634
 C        -3.081192        -0.062593        -3.005652
 C        -2.555539         0.013561        -1.595378
 C        -3.106951        -0.967616        -0.409832
 C        -1.696301        -1.197013        -1.043860
 O        -0.534978        -1.124674        -0.201688
 C         0.040047         0.069192         0.134221
 O         1.235449         0.001147         0.385589
 C        -0.949682         1.282268         0.103788
 C        -1.877737         1.333532        -1.194665
 H        -3.397478        -1.141891        -3.216240
 H        -4.048522         0.601002        -3.039395
 H        -2.398561         0.232660        -3.876245
 H        -3.099754        -0.434374         0.537356
 H        -4.047855        -1.550491        -0.453871
 H        -1.511347        -1.938647        -1.828370
 H        -1.470815         1.147919         1.005978
 H        -0.304481         2.255776         0.122468
 H        -2.377241         2.335927        -1.020232
 H        -1.042681         1.394192        -1.888171
