19
Iteration:  1064charge 0 multiplicity 1
 C        -3.052176        -0.030920        -2.891524
 C        -2.428511         0.006663        -1.570445
 C        -3.015752        -1.132061        -0.535015
 C        -1.685619        -1.274288        -1.062869
 O        -0.606049        -1.115655        -0.053608
 C         0.052673         0.105568         0.015918
 O         1.181062         0.062703         0.468518
 C        -0.900061         1.329032        -0.128474
 C        -2.055778         1.370598        -1.119228
 H        -3.534088        -1.024217        -3.343188
 H        -3.838423         0.739543        -2.957994
 H        -2.259506         0.282668        -3.484753
 H        -2.949447        -0.949021         0.566756
 H        -3.834216        -1.922088        -0.867581
 H        -1.460075        -1.999110        -1.755288
 H        -1.029621         1.649515         0.966840
 H        -0.162524         2.250721        -0.397646
 H        -2.780902         1.971383        -0.656012
 H        -1.552135         1.935178        -2.055153
