19
Iteration:  3853charge 0 multiplicity 1
 C        -3.186124         0.235375        -2.806403
 C        -2.541220         0.014876        -1.429432
 C        -3.046574        -1.135460        -0.626824
 C        -1.595263        -1.207339        -1.119081
 O        -0.518067        -1.170314        -0.203413
 C         0.045770         0.057246        -0.023441
 O         0.769885         0.165180         0.925703
 C        -0.406750         1.210465        -0.869474
 C        -1.942689         1.202830        -0.714906
 H        -3.373766        -0.734203        -3.240024
 H        -4.109017         0.712224        -2.829881
 H        -2.481492         0.633523        -3.517553
 H        -3.121521        -1.224993         0.481394
 H        -3.717667        -1.969731        -1.019021
 H        -1.336340        -1.979795        -1.822793
 H        -0.011691         2.180569        -0.510119
 H        -0.202970         1.102968        -2.047496
 H        -2.399286         1.305501         0.311892
 H        -2.430879         2.108932        -1.119477
