19
Iteration:  1450charge 0 multiplicity 1
 C        -2.835325        -0.082249        -2.981524
 C        -2.481626        -0.012586        -1.517196
 C        -3.116601        -1.098888        -0.591993
 C        -1.696058        -1.275076        -1.001594
 O        -0.566611        -1.127099        -0.181255
 C         0.021550         0.090700         0.023711
 O         1.197306         0.138433         0.515812
 C        -0.767697         1.417238        -0.301917
 C        -2.281925         1.302593        -0.783449
 H        -3.114296        -1.121301        -3.226444
 H        -3.723929         0.503402        -3.406991
 H        -1.996562         0.308926        -3.650686
 H        -3.217639        -0.778773         0.428106
 H        -3.657332        -1.841630        -1.113380
 H        -1.641653        -2.137731        -1.647122
 H        -0.731422         2.228222         0.577623
 H         0.046366         1.619850        -1.088035
 H        -2.882994         1.349727         0.176781
 H        -2.501923         2.174985        -1.398952
