19
Iteration:  2822
 C        -2.579622        -0.055053        -2.995147
 C        -2.350848        -0.086896        -1.476592
 C        -3.167509        -0.887016        -0.487309
 C        -1.735091        -1.310736        -0.927922
 O        -0.752376        -1.040234         0.093707
 C        -0.031462         0.126663         0.027046
 O         1.121080         0.129124        -0.261870
 C        -1.027553         1.157629         0.272538
 C        -1.966764         1.298140        -1.013460
 H        -3.056528        -0.956037        -3.360023
 H        -3.001973         0.932456        -3.311223
 H        -1.498348         0.080237        -3.407371
 H        -3.264496        -0.637244         0.552536
 H        -3.896907        -1.752736        -0.745909
 H        -1.461944        -2.088681        -1.630655
 H        -1.845667         0.813051         1.086495
 H        -0.611387         2.143150         0.371878
 H        -2.674229         1.934368        -0.710449
 H        -1.512157         1.785726        -1.805501
