19
Iteration:   522charge 0 multiplicity 1
 C        -2.998849        -0.128217        -3.003835
 C        -2.483918        -0.052583        -1.574675
 C        -3.058074        -0.680477        -0.294770
 C        -1.814330        -1.221249        -0.928452
 O        -0.484721        -1.256756        -0.412304
 C         0.015815         0.021201         0.045770
 O         1.142186         0.268263         0.402255
 C        -1.027114         1.110033         0.162124
 C        -1.790642         1.269625        -1.192193
 H        -3.075994        -1.116812        -3.281047
 H        -3.993240         0.255234        -3.216562
 H        -2.380518         0.506180        -3.579567
 H        -3.024486        -0.152762         0.655672
 H        -3.907014        -1.381250        -0.409328
 H        -1.898526        -2.124732        -1.663145
 H        -1.761754         0.999960         1.079441
 H        -0.369592         2.074471         0.484340
 H        -2.425208         2.068840        -1.352880
 H        -1.016776         1.452633        -1.980263
