19
Iteration:  4330
 C        -3.556156        -0.093468        -2.730926
 C        -2.542643         0.006651        -1.558970
 C        -2.811846        -0.854544        -0.325347
 C        -1.644252        -1.233639        -1.302802
 O        -0.298495        -1.021176        -0.685072
 C        -0.077908         0.003179         0.237638
 O         0.873242        -0.120830         1.051187
 C        -0.737700         1.379465        -0.145329
 C        -1.688257         1.322097        -1.412521
 H        -3.754784        -1.218864        -3.011237
 H        -4.592949         0.300582        -2.503597
 H        -3.152123         0.322429        -3.653300
 H        -2.444226        -0.645701         0.684990
 H        -3.550741        -1.600403        -0.155500
 H        -1.728613        -2.175252        -1.906854
 H        -1.321081         1.893520         0.715002
 H         0.157096         1.971530        -0.467717
 H        -2.238572         2.204702        -1.228426
 H        -1.086064         1.446829        -2.318937
