19
Iteration:  3000charge 0 multiplicity 1
 C        -3.533189        -0.184359        -2.611177
 C        -2.437327        -0.045719        -1.578561
 C        -2.687413        -0.907855        -0.294489
 C        -1.614547        -1.184143        -1.268010
 O        -0.224461        -0.974952        -0.784259
 C        -0.117053         0.048806         0.141522
 O         0.576285        -0.042797         1.126504
 C        -0.711183         1.369202        -0.198759
 C        -1.663628         1.276591        -1.433437
 H        -4.031782        -1.132697        -2.415806
 H        -4.270551         0.654306        -2.602298
 H        -3.226206        -0.193737        -3.615280
 H        -2.518671        -0.542119         0.703419
 H        -3.495448        -1.639418        -0.449760
 H        -1.726225        -2.234631        -1.761478
 H        -1.243932         1.737133         0.677111
 H         0.141821         2.181068        -0.238031
 H        -2.354732         2.176051        -1.504972
 H        -0.956136         1.394454        -2.204089
