19
Iteration:  1890charge 0 multiplicity 1
 C        -2.660744         0.224302        -2.927069
 C        -2.566148        -0.129816        -1.413582
 C        -3.184784        -1.263853        -0.631889
 C        -1.725364        -1.337460        -0.975837
 O        -0.615735        -1.104859         0.028372
 C         0.021074         0.178935        -0.028915
 O         1.079773         0.228942         0.571813
 C        -0.682211         1.308187        -0.813774
 C        -2.200756         1.185186        -0.622423
 H        -2.303015        -0.448185        -3.688340
 H        -3.639181         0.420714        -3.226978
 H        -2.319130         1.213354        -3.196885
 H        -3.475256        -0.964318         0.356525
 H        -3.924091        -1.682213        -1.229929
 H        -1.298489        -2.184633        -1.590409
 H        -0.297931         2.250486        -0.417089
 H        -0.573097         0.936576        -1.924525
 H        -2.342038         0.967913         0.432025
 H        -2.495432         2.106504        -0.987360
