19
Iteration:  3322charge 0 multiplicity 1
 C        -2.807423        -0.000376        -3.003482
 C        -2.503105        -0.023173        -1.471153
 C        -3.134436        -1.071398        -0.645655
 C        -1.690472        -1.178372        -0.987810
 O        -0.705298        -1.118072         0.042818
 C         0.009474         0.056424         0.072720
 O         1.204085         0.032997         0.159767
 C        -0.791697         1.350607        -0.065281
 C        -2.088976         1.274374        -0.898085
 H        -3.270752        -0.909538        -3.395535
 H        -3.473812         0.857976        -3.247696
 H        -1.844818         0.173465        -3.547455
 H        -3.450831        -0.867279         0.454326
 H        -3.807684        -1.811670        -1.095774
 H        -1.293411        -1.984980        -1.683185
 H        -0.997209         1.825589         0.962768
 H        -0.165735         1.937507        -0.672198
 H        -2.829106         1.831142        -0.242296
 H        -1.994098         1.993126        -1.636774
