19
Iteration:    82charge 0 multiplicity 1
 C        -2.852439        -0.080036        -2.959146
 C        -2.377088        -0.018871        -1.546841
 C        -3.134231        -0.787018        -0.422225
 C        -1.734554        -1.230870        -0.935711
 O        -0.578848        -1.229499        -0.056131
 C        -0.038835         0.011604         0.123392
 O         1.168608         0.170064         0.061725
 C        -1.030554         1.144235         0.113697
 C        -1.892776         1.354070        -1.189636
 H        -3.492441        -0.956883        -3.082610
 H        -3.508688         0.728155        -3.231861
 H        -2.030940         0.105535        -3.636680
 H        -3.065585        -0.460674         0.679952
 H        -3.866093        -1.542679        -0.703204
 H        -1.651893        -2.184641        -1.498300
 H        -1.866309         1.042876         1.005525
 H        -0.461453         2.108499         0.424245
 H        -2.669244         2.077029        -1.094184
 H        -1.317283         1.899541        -2.011823
