19
Iteration:  3935charge 0 multiplicity 1
 C        -3.078139         0.098105        -2.795917
 C        -2.530955         0.024645        -1.398009
 C        -3.043760        -1.138672        -0.576645
 C        -1.649045        -1.195015        -1.227236
 O        -0.573175        -1.130057        -0.232575
 C         0.036601         0.053209         0.004368
 O         0.836480         0.170052         0.887425
 C        -0.467326         1.179453        -0.829194
 C        -1.971223         1.269018        -0.687920
 H        -3.077533        -0.876289        -3.340361
 H        -4.135311         0.528231        -2.768969
 H        -2.528542         0.853264        -3.390851
 H        -3.030551        -1.043894         0.497922
 H        -3.863592        -1.716360        -1.030750
 H        -1.493160        -1.892253        -2.063929
 H        -0.147261         2.117869        -0.387806
 H        -0.096687         1.101858        -1.892554
 H        -2.200064         1.237217         0.358488
 H        -2.424919         2.148689        -1.165264
