19
Iteration:  3127
 C        -3.293949        -0.095401        -2.848199
 C        -2.498908        -0.034249        -1.554639
 C        -2.865498        -0.913248        -0.378268
 C        -1.685355        -1.262825        -1.235144
 O        -0.451091        -1.136402        -0.437741
 C         0.015830         0.019144         0.159825
 O         0.972095         0.111299         0.870996
 C        -0.783993         1.362081        -0.186814
 C        -1.869780         1.255748        -1.242826
 H        -3.904319        -1.010722        -3.017199
 H        -4.065589         0.695488        -2.798406
 H        -2.532430        -0.085273        -3.786591
 H        -2.376377        -0.572325         0.528792
 H        -3.840535        -1.494191        -0.413957
 H        -1.614736        -2.068231        -2.065532
 H        -1.231008         1.693219         0.830981
 H        -0.209056         2.225774        -0.403035
 H        -2.631960         2.027048        -0.989835
 H        -1.371767         1.598167        -2.226834
