19
Iteration:  2721charge 0 multiplicity 1
 C        -2.923797        -0.097471        -2.980805
 C        -2.488844        -0.024295        -1.514542
 C        -3.128507        -0.877874        -0.437300
 C        -1.708749        -1.221167        -0.973759
 O        -0.521765        -1.189089        -0.186884
 C        -0.044652         0.042164         0.083410
 O         1.154967         0.179144         0.279538
 C        -0.991294         1.227009         0.036690
 C        -1.883472         1.326843        -1.130486
 H        -2.822710        -1.198098        -3.269636
 H        -3.985559         0.223650        -3.098881
 H        -2.167457         0.546258        -3.527935
 H        -3.296882        -0.477874         0.587943
 H        -3.757516        -1.674374        -0.731789
 H        -1.544095        -2.152073        -1.625253
 H        -1.542594         1.155395         1.132071
 H        -0.303648         2.130203         0.235177
 H        -2.640469         2.048248        -1.107219
 H        -1.261636         1.643189        -1.929910
