19
Iteration:  3203charge 0 multiplicity 1
 C        -2.866671        -0.119409        -3.095845
 C        -2.434046         0.003580        -1.514741
 C        -3.085081        -0.757036        -0.391025
 C        -1.758117        -1.264375        -0.912506
 O        -0.523511        -1.198977        -0.245574
 C        -0.072041         0.066967         0.125421
 O         1.106172         0.240865         0.093624
 C        -1.093315         1.143453         0.306035
 C        -1.748061         1.291170        -1.128193
 H        -3.157542        -1.166417        -3.146060
 H        -3.762195         0.372111        -3.374903
 H        -1.921742        -0.128906        -3.740982
 H        -3.229992        -0.363940         0.641494
 H        -3.926363        -1.436972        -0.669595
 H        -1.922965        -2.254870        -1.444889
 H        -1.916044         0.867063         1.004601
 H        -0.515902         1.975219         0.597480
 H        -2.548421         2.212225        -1.050336
 H        -0.953551         1.475661        -1.915133
