19
Iteration:  2716
 C        -2.949317        -0.127209        -2.942515
 C        -2.476192        -0.003077        -1.518937
 C        -3.107859        -0.887494        -0.472545
 C        -1.725429        -1.210320        -0.954136
 O        -0.520684        -1.204406        -0.234184
 C        -0.022668         0.024556         0.064480
 O         1.146110         0.207426         0.338380
 C        -0.976627         1.234666         0.085051
 C        -1.881742         1.298560        -1.161398
 H        -2.899050        -1.107952        -3.365764
 H        -3.995831         0.173284        -2.952995
 H        -2.263151         0.461128        -3.503616
 H        -3.103188        -0.444280         0.509078
 H        -3.968009        -1.552718        -0.799106
 H        -1.640497        -1.980842        -1.651919
 H        -1.490503         1.332477         0.965665
 H        -0.317166         2.061595         0.118961
 H        -2.716904         2.085147        -1.035177
 H        -1.156116         1.553405        -2.003842
