19
Iteration:   381
 C        -3.284590        -0.226094        -2.905918
 C        -2.561794         0.023653        -1.532659
 C        -2.928817        -0.885464        -0.348464
 C        -1.642417        -1.147165        -1.101271
 O        -0.319392        -1.164866        -0.509942
 C         0.015333         0.007861         0.139584
 O         0.965527        -0.053704         0.893704
 C        -0.709958         1.372213        -0.229764
 C        -2.018731         1.408316        -1.209358
 H        -3.368494        -1.311478        -3.069002
 H        -4.354558         0.221181        -2.973247
 H        -2.756587         0.403145        -3.608834
 H        -2.890884        -0.366440         0.598929
 H        -3.825689        -1.327474        -0.598903
 H        -1.674050        -2.019059        -1.875653
 H        -0.777005         1.864502         0.653331
 H         0.174915         1.856231        -0.814808
 H        -2.744873         2.189497        -0.824739
 H        -1.767499         1.923625        -2.213407
