19
Iteration:  2228
 C        -3.084663        -0.136095        -2.954607
 C        -2.471092        -0.004871        -1.508078
 C        -3.019979        -0.924858        -0.361248
 C        -1.696517        -1.256249        -0.976267
 O        -0.422531        -1.136885        -0.450373
 C         0.004248         0.091957         0.040418
 O         1.097783         0.077955         0.596284
 C        -0.940942         1.272581        -0.000876
 C        -1.928476         1.363051        -1.207429
 H        -3.061042        -1.177468        -3.205815
 H        -4.140141         0.174327        -3.030729
 H        -2.381092         0.261078        -3.692210
 H        -3.302125        -0.393283         0.607326
 H        -3.916377        -1.412359        -0.774846
 H        -1.680170        -2.009888        -1.708163
 H        -1.531759         1.156637         0.959062
 H        -0.168987         2.256519         0.167306
 H        -2.671307         1.977918        -0.821104
 H        -1.517094         1.827484        -2.070376
