19
Iteration:  2136charge 0 multiplicity 1
 C        -3.471841        -0.020333        -2.673538
 C        -2.529096        -0.059764        -1.497733
 C        -2.717854        -1.056187        -0.372915
 C        -1.563295        -1.277173        -1.248803
 O        -0.308339        -1.079609        -0.593321
 C        -0.066602         0.064451         0.129720
 O         0.778715         0.093154         1.011650
 C        -0.814761         1.347020        -0.155621
 C        -1.737785         1.292442        -1.472865
 H        -4.153505        -0.906586        -2.853170
 H        -4.238734         0.827010        -2.635565
 H        -2.953443         0.019204        -3.633350
 H        -2.523516        -0.628141         0.608886
 H        -3.606722        -1.628046        -0.521733
 H        -1.327550        -2.141395        -1.975637
 H        -1.379046         1.733183         0.717025
 H         0.069209         2.056354        -0.101628
 H        -2.541105         2.013615        -1.259477
 H        -1.278035         1.536398        -2.382231
