19
Iteration:   934
 C        -2.779010        -0.060377        -2.945478
 C        -2.455023        -0.058584        -1.502364
 C        -3.182262        -1.045743        -0.639495
 C        -1.707731        -1.217246        -0.927554
 O        -0.672704        -1.068032        -0.043829
 C         0.068744         0.028754        -0.021467
 O         1.266047         0.104114         0.295648
 C        -0.839786         1.311250        -0.181373
 C        -2.195680         1.330676        -0.842490
 H        -2.880111        -1.111568        -3.492234
 H        -3.632147         0.626624        -3.220547
 H        -1.988657         0.366433        -3.631746
 H        -3.405747        -0.726606         0.424536
 H        -3.847750        -1.973893        -0.878672
 H        -1.455389        -1.913350        -1.634621
 H        -0.871614         1.546970         0.913527
 H        -0.306881         2.041706        -0.675948
 H        -3.001724         1.752308        -0.137418
 H        -2.236055         1.935789        -1.819670
