19
Iteration:  4141
 C        -3.089790        -0.108047        -2.962736
 C        -2.506110        -0.045633        -1.549690
 C        -3.181014        -0.751854        -0.448086
 C        -1.819322        -1.234567        -0.965857
 O        -0.481149        -1.226967        -0.393370
 C         0.012366        -0.024500         0.170097
 O         1.203256         0.276946         0.300964
 C        -0.984258         1.159245         0.238584
 C        -1.664666         1.254687        -1.122909
 H        -3.096287        -1.182389        -3.201394
 H        -4.130121         0.332342        -3.117640
 H        -2.474421         0.495755        -3.695538
 H        -3.410747        -0.137571         0.455749
 H        -3.949131        -1.380522        -0.900670
 H        -1.730219        -2.056999        -1.645317
 H        -1.746130         1.093942         1.001073
 H        -0.374802         2.173503         0.411687
 H        -2.222001         2.193572        -1.147397
 H        -0.843480         1.261694        -1.849615
