19
Iteration:  4214
 C        -3.211767        -0.104890        -2.851927
 C        -2.464180         0.001170        -1.517707
 C        -3.000534        -0.913695        -0.463333
 C        -1.729422        -1.220542        -1.141856
 O        -0.462558        -1.200498        -0.420110
 C        -0.010547         0.050484         0.060680
 O         1.045085         0.106103         0.722196
 C        -0.720259         1.274018        -0.090998
 C        -1.894936         1.345977        -1.149048
 H        -3.948103        -0.880751        -2.849479
 H        -3.815277         0.792260        -3.035794
 H        -2.526922        -0.350738        -3.734541
 H        -2.986472        -0.520933         0.566593
 H        -3.933596        -1.387076        -0.725162
 H        -1.631121        -2.060539        -1.853400
 H        -1.044110         1.482980         0.961546
 H        -0.055630         2.030969        -0.300213
 H        -2.723037         2.017960        -0.731847
 H        -1.494408         1.777963        -2.128686
