19
Iteration:  1971charge 0 multiplicity 1
 C        -3.142405         0.023831        -2.867017
 C        -2.531994        -0.015070        -1.441523
 C        -2.997942        -1.204724        -0.630594
 C        -1.516009        -1.206545        -1.134604
 O        -0.610334        -1.050352        -0.122021
 C         0.010408         0.134340         0.070618
 O         0.937380         0.117898         0.797239
 C        -0.560328         1.290135        -0.640747
 C        -2.078215         1.260850        -0.849176
 H        -3.581115        -0.952293        -3.111061
 H        -3.973796         0.662070        -2.920004
 H        -2.373687         0.126592        -3.510563
 H        -3.019793        -1.288892         0.450367
 H        -3.660743        -1.976056        -1.150537
 H        -1.119868        -1.658315        -2.002251
 H        -0.045641         2.189522        -0.265403
 H         0.025963         1.349103        -1.646859
 H        -2.652772         1.620098        -0.002295
 H        -2.265739         2.043615        -1.557406
