19
Iteration:  2456
 C        -3.211057        -0.121150        -2.919220
 C        -2.451764        -0.015466        -1.561349
 C        -2.937639        -0.967902        -0.370891
 C        -1.715130        -1.198348        -1.141906
 O        -0.493972        -1.096931        -0.355689
 C        -0.004088         0.058541         0.139844
 O         1.081167         0.155637         0.695526
 C        -0.831866         1.272507        -0.056621
 C        -1.882067         1.254723        -1.269279
 H        -3.825058        -1.025525        -2.964403
 H        -3.853466         0.822321        -3.079189
 H        -2.671579        -0.335917        -3.829423
 H        -2.726311        -0.643620         0.653785
 H        -3.724023        -1.728404        -0.562413
 H        -1.592898        -2.091165        -1.848495
 H        -1.568523         1.421280         0.771297
 H        -0.170029         2.120983        -0.017914
 H        -2.705639         2.049671        -1.007797
 H        -1.371807         1.665100        -2.244965
