19
Iteration:     4charge 0 multiplicity 1
 C        -3.164490        -0.136703        -2.908070
 C        -2.466458        -0.038382        -1.545950
 C        -3.028461        -0.819641        -0.376937
 C        -1.727935        -1.229383        -1.032020
 O        -0.468988        -1.124271        -0.382858
 C        -0.018955         0.084610         0.093401
 O         1.103536         0.084374         0.582873
 C        -0.919973         1.261320         0.006584
 C        -1.796081         1.319664        -1.281914
 H        -3.487542        -1.158102        -3.112501
 H        -3.956770         0.534407        -2.913457
 H        -2.466963         0.027541        -3.675163
 H        -3.032347        -0.437051         0.605875
 H        -3.818485        -1.583033        -0.566731
 H        -1.700738        -2.166128        -1.588511
 H        -1.613385         1.172527         0.976608
 H        -0.258002         2.083178         0.077758
 H        -2.514067         2.021600        -1.228449
 H        -1.055235         1.435272        -2.088402
