19
Iteration:   390charge 0 multiplicity 1
 C        -3.256052        -0.116307        -2.903177
 C        -2.599090         0.009645        -1.549537
 C        -2.952366        -0.934144        -0.399423
 C        -1.692696        -1.222061        -1.054868
 O        -0.383485        -1.105154        -0.498425
 C         0.022840         0.035426         0.183650
 O         1.020757        -0.014728         0.881927
 C        -0.696294         1.321168        -0.279642
 C        -1.987672         1.372767        -1.199781
 H        -3.397150        -1.158789        -3.039460
 H        -4.294282         0.237650        -2.883730
 H        -2.654957         0.194396        -3.788221
 H        -2.778196        -0.531974         0.558203
 H        -3.750278        -1.623573        -0.409456
 H        -1.641540        -2.000674        -1.914958
 H        -0.857373         1.972804         0.683261
 H         0.218632         1.918275        -0.845408
 H        -2.726120         2.033022        -0.756211
 H        -1.601059         1.860710        -2.148348
