19
Iteration:  3955
 C        -3.055479         0.082331        -2.886806
 C        -2.517933        -0.041338        -1.483437
 C        -3.052760        -1.089973        -0.472033
 C        -1.699471        -1.262035        -1.155998
 O        -0.596139        -1.071123        -0.306511
 C         0.046655         0.153502         0.073783
 O         0.965603        -0.005100         0.827608
 C        -0.488361         1.353647        -0.619465
 C        -2.056568         1.249671        -0.807095
 H        -2.901874        -0.836487        -3.390913
 H        -4.126496         0.311505        -2.914291
 H        -2.670236         0.900351        -3.420760
 H        -2.924686        -0.816570         0.541704
 H        -3.823871        -1.781680        -0.700559
 H        -1.550106        -2.056198        -1.918255
 H        -0.078969         2.295622        -0.170451
 H        -0.080830         1.152437        -1.725784
 H        -2.596381         1.297265         0.193449
 H        -2.498481         1.989124        -1.455712
