19
Iteration:  4696charge 0 multiplicity 1
 C        -3.516234        -0.103159        -2.854788
 C        -2.595041         0.012414        -1.600710
 C        -2.836957        -0.812641        -0.247178
 C        -1.614481        -1.156159        -1.140653
 O        -0.232182        -1.022445        -0.697513
 C        -0.007502        -0.028250         0.186169
 O         0.826259        -0.110265         1.047488
 C        -0.772411         1.322767        -0.184619
 C        -1.726286         1.256952        -1.358324
 H        -3.646774        -1.182800        -3.045799
 H        -4.440066         0.432777        -2.630368
 H        -3.065468         0.426184        -3.743127
 H        -2.842395        -0.269636         0.707677
 H        -3.706284        -1.455071        -0.387770
 H        -1.553827        -2.104357        -1.594894
 H        -1.194575         1.578877         0.735666
 H        -0.000494         2.064964        -0.286932
 H        -2.353299         2.209781        -1.488935
 H        -1.094737         1.101735        -2.309526
