19
Iteration:  4924
 C        -2.734678        -0.012857        -2.923016
 C        -2.370487        -0.033844        -1.440061
 C        -3.169469        -0.869724        -0.382819
 C        -1.795931        -1.239707        -0.917239
 O        -0.619377        -1.266892        -0.036028
 C        -0.064964        -0.000393         0.009442
 O         1.129936         0.195442         0.004810
 C        -1.089451         1.167749         0.095073
 C        -1.751380         1.420152        -1.177980
 H        -3.507817        -0.760217        -3.215871
 H        -3.063469         0.924630        -3.340764
 H        -1.810705        -0.252278        -3.517710
 H        -3.223745        -0.498746         0.634305
 H        -4.059337        -1.451828        -0.722249
 H        -1.606124        -2.049457        -1.685609
 H        -1.999050         0.848335         0.793357
 H        -0.567828         2.032373         0.548402
 H        -2.593417         2.034262        -0.987175
 H        -1.243576         1.724475        -2.023036
