19
Iteration:  4813
 C        -3.306690        -0.063538        -2.828270
 C        -2.480998        -0.052800        -1.556447
 C        -2.959903        -0.835243        -0.341533
 C        -1.703040        -1.261430        -1.172524
 O        -0.383031        -1.101936        -0.530863
 C        -0.036314         0.087142         0.174637
 O         0.919541         0.005798         0.839061
 C        -0.738515         1.306648        -0.124324
 C        -1.789451         1.239375        -1.314266
 H        -3.596457        -1.078826        -3.068080
 H        -4.136184         0.590443        -2.571462
 H        -2.657357         0.366278        -3.650902
 H        -2.579679        -0.604598         0.672864
 H        -3.886157        -1.417869        -0.389618
 H        -1.723000        -2.119838        -1.788814
 H        -1.311640         1.772794         0.761937
 H        -0.004118         2.053055        -0.488185
 H        -2.493460         1.991008        -1.148650
 H        -1.239574         1.524670        -2.155331
