19
Iteration:  4355
 C        -3.470967        -0.044890        -2.694582
 C        -2.495797         0.030035        -1.512603
 C        -2.851095        -0.871821        -0.300693
 C        -1.635099        -1.157801        -1.194880
 O        -0.307250        -1.004739        -0.762157
 C         0.024125        -0.040001         0.096853
 O         0.804089        -0.001406         0.989797
 C        -0.836692         1.264720        -0.071031
 C        -1.644081         1.191793        -1.414301
 H        -3.992190        -0.968395        -2.642837
 H        -4.266766         0.645945        -2.699388
 H        -2.957339        -0.102796        -3.659847
 H        -2.820890        -0.470958         0.711830
 H        -3.769440        -1.527180        -0.343893
 H        -1.708823        -1.963680        -1.894181
 H        -1.553149         1.208616         0.855647
 H        -0.172217         2.103525        -0.046144
 H        -2.093941         2.192066        -1.562188
 H        -0.917991         1.104905        -2.118410
