19
Iteration:  3035
 C        -3.494745        -0.122675        -2.607214
 C        -2.451550        -0.005336        -1.504387
 C        -2.618286        -0.842633        -0.205893
 C        -1.515958        -1.223836        -1.204694
 O        -0.114649        -0.993274        -0.779502
 C        -0.159295         0.035001         0.129929
 O         0.443400        -0.165727         1.118390
 C        -0.754136         1.392834        -0.322836
 C        -1.751806         1.306899        -1.497715
 H        -3.676795        -1.155934        -2.984233
 H        -4.477731         0.227752        -2.211420
 H        -3.133281         0.431676        -3.432535
 H        -2.429591        -0.395342         0.762708
 H        -3.433011        -1.556612        -0.162549
 H        -1.618463        -2.197471        -1.673661
 H        -1.092183         1.719827         0.608254
 H         0.149492         2.088109        -0.625171
 H        -2.573502         2.091226        -1.574048
 H        -1.251763         1.390642        -2.423970
