19
Iteration:  2665
 C        -3.356050        -0.124761        -2.861854
 C        -2.498489        -0.049226        -1.607929
 C        -2.891982        -0.892507        -0.281399
 C        -1.615581        -1.162812        -1.155131
 O        -0.303785        -1.043886        -0.532155
 C         0.007134         0.095706         0.184732
 O         1.027389        -0.003767         0.879896
 C        -1.003419         1.238727        -0.099437
 C        -1.814397         1.282506        -1.402513
 H        -3.932800        -1.112521        -2.869721
 H        -4.140993         0.696384        -2.668069
 H        -2.899720        -0.047742        -3.878514
 H        -2.902730        -0.293810         0.549598
 H        -3.739811        -1.574945        -0.359472
 H        -1.616588        -2.031819        -1.778417
 H        -1.652470         1.390360         0.952006
 H        -0.386696         2.214605        -0.109481
 H        -2.419920         2.124039        -1.476165
 H        -1.024482         1.330480        -2.091154
