19
Iteration:  3438charge 0 multiplicity 1
 C        -3.234145         0.290586        -2.717743
 C        -2.466982        -0.080763        -1.472054
 C        -2.988693        -1.283082        -0.674398
 C        -1.641801        -1.295038        -1.232122
 O        -0.598147        -1.148353        -0.232350
 C        -0.026568         0.080049         0.023170
 O         0.692442         0.292536         0.987144
 C        -0.266814         1.264030        -0.926348
 C        -1.847596         1.175819        -0.652468
 H        -3.634280        -0.609366        -3.245449
 H        -4.160079         0.883485        -2.536830
 H        -2.679708         0.759651        -3.471550
 H        -3.038557        -1.323176         0.440730
 H        -3.875844        -1.713596        -1.070538
 H        -1.302602        -2.019266        -2.017902
 H         0.233846         2.079535        -0.537255
 H         0.013149         0.996666        -2.017545
 H        -2.137227         1.327272         0.393055
 H        -2.489103         2.081340        -1.022143
