19
Iteration:  4712charge 0 multiplicity 1
 C        -3.454064        -0.107938        -2.679684
 C        -2.477341        -0.071518        -1.540441
 C        -2.829489        -0.773969        -0.359821
 C        -1.660081        -1.205795        -1.127306
 O        -0.282556        -0.971419        -0.750276
 C         0.082357         0.143896         0.108912
 O         0.706084        -0.202521         1.086296
 C        -0.787079         1.306535        -0.160760
 C        -1.698026         1.244817        -1.466535
 H        -3.901281        -1.111867        -2.749492
 H        -4.298805         0.614766        -2.541786
 H        -2.900068         0.166535        -3.557632
 H        -2.573070        -0.324058         0.596419
 H        -3.625967        -1.531382        -0.250424
 H        -1.805022        -2.167919        -1.733318
 H        -1.431497         1.518926         0.798529
 H        -0.131464         2.237880        -0.405693
 H        -2.328733         2.105774        -1.366886
 H        -1.116527         1.422705        -2.307998
