19
Iteration:  2151
 C        -3.423434        -0.022065        -2.624906
 C        -2.384175        -0.062819        -1.514071
 C        -2.808952        -1.007513        -0.368349
 C        -1.605291        -1.280030        -1.280555
 O        -0.326897        -1.031696        -0.596170
 C        -0.075709         0.116216         0.144605
 O         0.839068         0.067399         0.971525
 C        -0.922138         1.317213        -0.202611
 C        -1.715502         1.265144        -1.421598
 H        -4.040116        -0.874015        -2.660112
 H        -3.966142         0.883126        -2.416683
 H        -2.906890         0.033522        -3.575056
 H        -2.485730        -0.992799         0.676371
 H        -3.705239        -1.682042        -0.474640
 H        -1.602090        -2.159596        -1.866192
 H        -1.687053         1.141523         0.612978
 H        -0.375557         2.393266        -0.070727
 H        -2.335482         2.107187        -1.529564
 H        -1.086808         1.254424        -2.340343
