19
Iteration:  2232charge 0 multiplicity 1
 C        -3.056276        -0.138874        -2.944838
 C        -2.439431        -0.001729        -1.495930
 C        -3.035182        -0.941115        -0.365578
 C        -1.745765        -1.241551        -0.990554
 O        -0.431454        -1.129813        -0.417981
 C         0.015870         0.070456         0.040054
 O         1.108534         0.088057         0.568500
 C        -0.932469         1.282908        -0.004056
 C        -1.941600         1.363783        -1.182454
 H        -3.108403        -1.240204        -3.256757
 H        -4.052537         0.211029        -3.148260
 H        -2.356053         0.351999        -3.685218
 H        -3.210664        -0.467993         0.555072
 H        -3.852272        -1.474063        -0.814713
 H        -1.684267        -2.083847        -1.746623
 H        -1.577904         1.338732         0.933914
 H        -0.235277         2.083274         0.125164
 H        -2.742144         2.029195        -0.702561
 H        -1.610191         1.778892        -2.197426
