19
Iteration:  2443charge 0 multiplicity 1
 C        -3.119356        -0.138258        -2.909736
 C        -2.543888        -0.058092        -1.509075
 C        -3.016105        -0.921928        -0.405137
 C        -1.669431        -1.261714        -1.103199
 O        -0.482278        -1.136577        -0.345927
 C        -0.007393         0.081989         0.110189
 O         1.102534         0.192271         0.557447
 C        -0.983222         1.238329        -0.011098
 C        -1.762026         1.343794        -1.240426
 H        -3.831790        -0.939353        -2.990207
 H        -3.750857         0.777342        -3.161364
 H        -2.241000        -0.130215        -3.534494
 H        -2.907871        -0.541993         0.619807
 H        -3.895954        -1.661504        -0.431928
 H        -1.581989        -2.124725        -1.781759
 H        -1.621887         1.113452         0.995338
 H        -0.394639         2.081208         0.115375
 H        -2.502120         2.148630        -1.086036
 H        -1.197984         1.565193        -2.159406
