19
Iteration:   540charge 0 multiplicity 1
 C        -3.038351        -0.074178        -3.044674
 C        -2.430573        -0.050236        -1.557065
 C        -3.078536        -0.780095        -0.274959
 C        -1.834052        -1.303553        -0.976154
 O        -0.472318        -1.148524        -0.344770
 C        -0.036790         0.017941         0.123123
 O         1.127575         0.266483         0.311227
 C        -1.052570         1.119718         0.185647
 C        -1.652427         1.237833        -1.235540
 H        -3.192086        -1.180780        -3.375170
 H        -3.945708         0.541994        -3.148872
 H        -2.400701         0.541524        -3.828968
 H        -2.997594        -0.254862         0.650849
 H        -3.992728        -1.239871        -0.309837
 H        -1.995188        -2.400774        -1.283748
 H        -1.767397         0.974413         0.911081
 H        -0.627378         1.977842         0.411561
 H        -2.355358         2.150966        -1.026467
 H        -0.946844         1.579739        -1.967202
