19
Iteration:   504charge 0 multiplicity 1
 C        -2.992962        -0.163550        -2.895036
 C        -2.467906        -0.007269        -1.531315
 C        -3.155015        -0.780437        -0.408642
 C        -1.751095        -1.213820        -0.970434
 O        -0.420868        -1.120798        -0.393047
 C        -0.011207         0.072811         0.098399
 O         1.149845         0.055221         0.407804
 C        -1.005072         1.216962         0.050091
 C        -1.825480         1.307347        -1.168607
 H        -3.102121        -1.294395        -3.238953
 H        -4.080337         0.214137        -2.896624
 H        -2.282084         0.305976        -3.623002
 H        -3.232221        -0.234401         0.564693
 H        -4.028194        -1.488408        -0.686804
 H        -1.769601        -2.154474        -1.363329
 H        -1.625847         1.106737         0.934761
 H        -0.427760         2.250585         0.207276
 H        -2.645736         2.133521        -1.045422
 H        -1.179170         1.611068        -2.038862
