19
Iteration:  2490charge 0 multiplicity 1
 C        -3.344065        -0.134215        -2.767294
 C        -2.464395        -0.044693        -1.607352
 C        -2.906002        -0.939863        -0.453516
 C        -1.615532        -1.240454        -1.119554
 O        -0.319925        -1.081482        -0.528134
 C        -0.021003         0.099150         0.144870
 O         0.875361         0.013195         0.967562
 C        -0.691964         1.425467        -0.256653
 C        -1.929141         1.283235        -1.276873
 H        -3.810528        -1.136561        -2.704755
 H        -4.270089         0.491021        -2.641546
 H        -2.868918         0.088985        -3.723466
 H        -2.864890        -0.697474         0.612427
 H        -3.662156        -1.644074        -0.664141
 H        -1.528316        -2.134044        -1.777097
 H        -1.145249         1.678816         0.664685
 H         0.216764         2.021491        -0.371484
 H        -2.815921         1.935718        -0.882253
 H        -1.688860         1.691889        -2.352515
