19
Iteration:  3819charge 0 multiplicity 1
 C        -3.097718         0.005306        -2.887036
 C        -2.513762         0.057976        -1.434279
 C        -3.080600        -1.048496        -0.519599
 C        -1.709650        -1.253482        -1.161940
 O        -0.529898        -1.162958        -0.309497
 C         0.001103         0.094477         0.102771
 O         0.972776         0.026987         0.794826
 C        -0.519449         1.331297        -0.563992
 C        -2.063766         1.348843        -0.818784
 H        -2.785012        -0.950660        -3.304357
 H        -4.089584         0.231120        -3.063949
 H        -2.483519         0.735431        -3.417767
 H        -2.912934        -1.003605         0.577466
 H        -3.902361        -1.750137        -0.878615
 H        -1.405194        -1.989198        -1.896954
 H        -0.104067         2.186522        -0.058701
 H         0.000455         1.309619        -1.645975
 H        -2.640608         1.465703         0.109366
 H        -2.188769         2.095121        -1.626928
