19
Iteration:  3903
 C        -3.132525         0.313537        -2.693699
 C        -2.535695        -0.012435        -1.333737
 C        -2.998926        -1.279501        -0.658723
 C        -1.600809        -1.317224        -1.178892
 O        -0.526403        -1.155926        -0.171701
 C         0.022466         0.075185        -0.038753
 O         0.710607         0.281909         0.952383
 C        -0.439839         1.095589        -1.025556
 C        -1.917354         1.274020        -0.703499
 H        -3.709028        -0.463305        -3.305931
 H        -3.839241         1.249050        -2.603452
 H        -2.271136         0.708953        -3.343358
 H        -3.370990        -1.302646         0.364074
 H        -3.741345        -1.740881        -1.357175
 H        -1.315904        -2.066551        -1.949185
 H         0.021540         2.010424        -0.711786
 H        -0.204779         0.850377        -2.042059
 H        -2.063122         1.377381         0.344755
 H        -2.453482         2.157593        -1.119912
