19
Iteration:  3814charge 0 multiplicity 1
 C        -3.093852        -0.000223        -2.918049
 C        -2.552775         0.022610        -1.455551
 C        -3.025367        -1.058838        -0.486487
 C        -1.714907        -1.203382        -1.125901
 O        -0.519507        -1.160517        -0.274540
 C        -0.004520         0.096682         0.067177
 O         0.969863        -0.007090         0.762992
 C        -0.520306         1.359328        -0.529151
 C        -2.059678         1.298287        -0.839242
 H        -2.761918        -0.978162        -3.308012
 H        -4.173104         0.308770        -3.257858
 H        -2.477969         0.791184        -3.408895
 H        -3.007731        -0.871422         0.590746
 H        -3.804901        -1.655945        -0.858831
 H        -1.566120        -1.834428        -2.040442
 H        -0.152606         2.201351         0.101686
 H        -0.016279         1.392321        -1.421619
 H        -2.683038         1.649407         0.004649
 H        -2.134834         2.084726        -1.605623
