19
Iteration:  1447
 C        -2.821213        -0.072437        -2.995797
 C        -2.482449        -0.012639        -1.528516
 C        -3.090187        -1.098608        -0.583697
 C        -1.732471        -1.249458        -1.014417
 O        -0.551179        -1.132383        -0.171006
 C         0.010463         0.087616         0.034574
 O         1.186958         0.125146         0.511867
 C        -0.761917         1.422217        -0.308391
 C        -2.285754         1.306997        -0.771802
 H        -2.975221        -1.180112        -3.300827
 H        -3.752322         0.491523        -3.358042
 H        -2.035457         0.262809        -3.668651
 H        -3.231915        -0.802207         0.407234
 H        -3.630197        -1.925598        -0.938148
 H        -1.618457        -2.160330        -1.601436
 H        -0.609630         2.133673         0.422501
 H        -0.168401         1.735557        -1.109060
 H        -2.911635         1.317387         0.243685
 H        -2.499188         2.227815        -1.378575
