19
Iteration:  1188charge 0 multiplicity 1
 C        -3.398165        -0.042693        -2.749523
 C        -2.413446        -0.071906        -1.589261
 C        -2.852234        -1.038619        -0.425378
 C        -1.577908        -1.246152        -1.153055
 O        -0.374165        -1.046946        -0.451823
 C        -0.019488         0.101462         0.150291
 O         0.924682         0.027264         0.888692
 C        -0.834039         1.334570        -0.216753
 C        -1.902676         1.304871        -1.331169
 H        -4.000701        -0.899014        -2.762982
 H        -3.915559         0.920373        -2.613929
 H        -2.891954        -0.119735        -3.774771
 H        -2.729927        -0.808356         0.567801
 H        -3.704078        -1.622897        -0.625143
 H        -1.455600        -2.086742        -1.928259
 H        -1.218703         1.606872         0.863007
 H        -0.086557         2.072859        -0.328521
 H        -2.740419         2.027289        -1.179057
 H        -1.308515         1.709754        -2.274155
