19
Iteration:   568charge 0 multiplicity 1
 C        -3.038509        -0.078806        -2.868864
 C        -2.394224        -0.043142        -1.503532
 C        -3.160395        -0.888964        -0.543001
 C        -1.731676        -1.247361        -0.984830
 O        -0.509542        -1.150171        -0.215739
 C        -0.010292         0.110303         0.069091
 O         1.175120         0.110403         0.305209
 C        -1.018196         1.286423         0.108838
 C        -1.769221         1.229992        -1.166082
 H        -3.631184        -0.970843        -2.959799
 H        -3.797393         0.728188        -2.903184
 H        -2.461771         0.257117        -3.656288
 H        -3.271982        -0.601335         0.530463
 H        -3.965454        -1.623863        -0.948143
 H        -1.711770        -2.071663        -1.602188
 H        -1.639713         1.110946         1.064257
 H        -0.575817         2.473286         0.174155
 H        -2.341118         2.118472        -1.328858
 H        -0.997975         1.378253        -1.993858
