19
Iteration:  3347
 C        -2.897194         0.039811        -3.025817
 C        -2.432349        -0.063668        -1.555266
 C        -3.183086        -1.096318        -0.581492
 C        -1.815187        -1.241592        -0.997488
 O        -0.605200        -1.101392        -0.093465
 C         0.076215         0.082390        -0.010437
 O         1.245156         0.008763         0.446775
 C        -0.713951         1.415279        -0.189935
 C        -2.155411         1.260242        -0.875707
 H        -3.143021        -0.926844        -3.465059
 H        -3.661490         0.764281        -3.163552
 H        -2.010282         0.489292        -3.593810
 H        -3.326943        -0.716835         0.384661
 H        -4.006200        -1.751552        -0.821785
 H        -1.549655        -2.122505        -1.471347
 H        -0.854316         1.821653         0.836878
 H        -0.154173         2.049171        -0.887078
 H        -2.948508         1.546801        -0.038085
 H        -2.351350         2.154087        -1.448322
