19
Iteration:  3740charge 0 multiplicity 1
 C        -3.034347        -0.043386        -2.953521
 C        -2.452004         0.039256        -1.501003
 C        -3.102565        -0.975421        -0.497887
 C        -1.717442        -1.258792        -1.019392
 O        -0.600614        -1.170647        -0.171965
 C         0.042804         0.043404         0.053235
 O         1.214831         0.056817         0.364722
 C        -0.899894         1.294974         0.030920
 C        -1.912574         1.356255        -1.115876
 H        -3.735474        -0.881967        -3.008876
 H        -3.571981         0.791060        -3.172337
 H        -2.254530        -0.136007        -3.721876
 H        -3.210564        -0.737289         0.571537
 H        -3.962084        -1.423137        -0.973971
 H        -1.596018        -2.113351        -1.767010
 H        -1.411759         1.293173         1.011159
 H        -0.204376         2.182989         0.008923
 H        -2.696422         2.042247        -0.847325
 H        -1.489712         1.909662        -1.991101
