19
Iteration:   155charge 0 multiplicity 1
 C        -2.876788        -0.046145        -2.954632
 C        -2.407398        -0.018888        -1.506156
 C        -3.149537        -0.986670        -0.535461
 C        -1.740324        -1.198841        -0.974331
 O        -0.681781        -1.121318        -0.006170
 C         0.046429        -0.008864        -0.058317
 O         1.210912         0.109965         0.272023
 C        -0.842417         1.248974        -0.041730
 C        -2.032002         1.355982        -1.054719
 H        -3.273209        -1.067391        -3.299727
 H        -3.771336         0.579626        -3.059086
 H        -2.134421         0.372020        -3.624779
 H        -3.110631        -0.777170         0.602595
 H        -3.934632        -1.636932        -0.877391
 H        -1.469368        -2.128578        -1.543432
 H        -1.149550         1.266835         0.889829
 H        -0.247402         2.053921        -0.158868
 H        -2.875993         2.004548        -0.675501
 H        -1.697367         1.953440        -1.853157
