19
Iteration:  2118
 C        -3.495755        -0.103382        -2.786847
 C        -2.462568        -0.083357        -1.616222
 C        -2.777114        -0.970975        -0.348148
 C        -1.563008        -1.184528        -1.226095
 O        -0.244614        -1.069417        -0.602030
 C        -0.053455         0.054688         0.142271
 O         0.757194         0.027268         1.048832
 C        -0.750486         1.342104        -0.263012
 C        -1.873304         1.314438        -1.231499
 H        -3.979346        -1.012378        -2.701836
 H        -4.261543         0.631623        -2.531654
 H        -3.093383         0.189711        -3.736386
 H        -2.477282        -0.799148         0.672248
 H        -3.589616        -1.775060        -0.425239
 H        -1.627402        -2.079949        -1.843038
 H        -1.079671         1.965292         0.603813
 H         0.106796         2.123147        -0.667117
 H        -2.501029         2.169001        -1.238439
 H        -1.212650         1.417594        -2.170826
