19
Iteration:  2986charge 0 multiplicity 1
 C        -3.545844        -0.166538        -2.692667
 C        -2.496596         0.004226        -1.525371
 C        -2.712878        -0.889056        -0.344923
 C        -1.496377        -1.264801        -1.213797
 O        -0.264529        -0.983710        -0.702426
 C        -0.158873         0.051929         0.199731
 O         0.717609        -0.081916         1.060910
 C        -0.856741         1.365720        -0.185492
 C        -1.653742         1.290007        -1.434160
 H        -4.208057        -0.987537        -2.504222
 H        -4.153636         0.737692        -2.724467
 H        -3.029539        -0.264060        -3.707661
 H        -2.257652        -0.545107         0.655031
 H        -3.633859        -1.446811        -0.201331
 H        -1.365614        -2.015210        -1.975381
 H        -1.299943         1.900002         0.756374
 H         0.022332         1.904425        -0.517493
 H        -2.374131         2.374111        -1.558024
 H        -1.121653         1.276904        -2.442697
