19
Iteration:  2107
 C        -3.414775        -0.153696        -2.737869
 C        -2.515746        -0.052327        -1.564242
 C        -2.814875        -0.908164        -0.397303
 C        -1.582943        -1.202742        -1.216007
 O        -0.264687        -1.023726        -0.645134
 C         0.010556         0.071436         0.146166
 O         0.760726        -0.031223         1.083673
 C        -0.697604         1.369685        -0.257973
 C        -1.921093         1.288227        -1.294098
 H        -3.766468        -1.131818        -2.894119
 H        -4.303598         0.432877        -2.508998
 H        -3.060717         0.071976        -3.722677
 H        -2.602008        -0.485992         0.577219
 H        -3.613864        -1.703347        -0.471143
 H        -1.437328        -2.129447        -1.775945
 H        -0.973146         1.909345         0.677150
 H         0.230676         1.883354        -0.727899
 H        -2.714340         1.882518        -0.859327
 H        -1.679021         1.786054        -2.299580
