19
Iteration:  1788
 C        -2.884576         0.046387        -2.972239
 C        -2.548644        -0.131621        -1.510957
 C        -3.101135        -1.181001        -0.554959
 C        -1.674590        -1.318672        -1.026711
 O        -0.597542        -1.164013        -0.101363
 C         0.029560         0.123236        -0.002222
 O         1.141873         0.217415         0.533877
 C        -0.741865         1.400613        -0.333397
 C        -2.137896         1.295278        -0.851456
 H        -3.388717        -0.785693        -3.370526
 H        -3.636815         0.844327        -3.097625
 H        -2.072733         0.205848        -3.697836
 H        -3.371654        -0.937350         0.502823
 H        -3.719214        -1.938296        -1.085534
 H        -1.415404        -2.121724        -1.675413
 H        -0.488237         2.079353         0.527622
 H        -0.004211         1.796341        -1.169950
 H        -2.806235         1.656743        -0.107575
 H        -2.321437         2.119478        -1.562475
