19
Iteration:  3021
 C        -3.491252        -0.147825        -2.562219
 C        -2.418282        -0.070663        -1.507185
 C        -2.717108        -0.837851        -0.292456
 C        -1.559327        -1.238208        -1.171571
 O        -0.169698        -0.974922        -0.836680
 C         0.011388         0.078172         0.079038
 O         0.441397        -0.123587         1.193732
 C        -0.735593         1.362978        -0.330662
 C        -1.717692         1.286101        -1.470941
 H        -3.802250        -1.178855        -2.705920
 H        -4.382465         0.430978        -2.219539
 H        -3.183791         0.204811        -3.528803
 H        -2.339229        -0.605871         0.695484
 H        -3.696911        -1.359006        -0.245522
 H        -1.496123        -2.096518        -1.964561
 H        -1.461538         1.583682         0.495826
 H         0.003107         2.259726        -0.329268
 H        -2.425860         2.353725        -1.232432
 H        -1.251196         1.372553        -2.455586
