19
Iteration:  2832charge 0 multiplicity 1
 C        -2.582917        -0.020241        -3.009347
 C        -2.360913        -0.083588        -1.534037
 C        -3.186420        -0.969636        -0.503092
 C        -1.727994        -1.272739        -0.884032
 O        -0.742063        -1.102551         0.087857
 C        -0.040583         0.101330         0.022730
 O         1.168091         0.150843        -0.242721
 C        -1.061111         1.236828         0.261087
 C        -1.931922         1.311810        -0.999331
 H        -3.073216        -0.925216        -3.402477
 H        -3.370134         0.677086        -3.216943
 H        -1.675439         0.068016        -3.665494
 H        -3.219656        -0.524577         0.480949
 H        -4.113291        -1.512539        -0.814927
 H        -1.604577        -2.268393        -1.304448
 H        -1.594831         0.926551         1.268820
 H        -0.508700         2.118337         0.552520
 H        -2.800318         1.831596        -0.807181
 H        -1.380019         1.780601        -1.723804
