19
Iteration:  1533
 C        -3.133444        -0.131630        -2.931476
 C        -2.420410        -0.026139        -1.564078
 C        -3.013824        -1.113601        -0.614412
 C        -1.657254        -1.242231        -1.148761
 O        -0.591207        -1.097026        -0.132430
 C         0.037399         0.090863         0.092415
 O         1.098350         0.161797         0.628441
 C        -0.669565         1.346369        -0.298786
 C        -2.087215         1.335826        -0.894537
 H        -3.190309        -1.131943        -3.374354
 H        -4.083601         0.290891        -2.775275
 H        -2.607115         0.441005        -3.598162
 H        -3.325048        -0.872047         0.365862
 H        -3.801030        -1.633047        -1.031667
 H        -1.421685        -2.060895        -1.826549
 H        -0.741141         1.902998         0.572779
 H         0.106172         1.797732        -0.881590
 H        -2.819994         1.613042        -0.237006
 H        -2.118968         2.090123        -1.675146
