19
Iteration:  2088
 C        -3.325456        -0.261020        -2.776124
 C        -2.425076        -0.060687        -1.579724
 C        -2.838342        -0.917287        -0.275586
 C        -1.619657        -1.211794        -1.167496
 O        -0.298763        -1.004207        -0.698325
 C        -0.049082         0.062290         0.148915
 O         0.748691        -0.093410         1.037546
 C        -0.655916         1.395597        -0.375305
 C        -1.965434         1.413167        -1.141711
 H        -3.424938        -1.346803        -3.182670
 H        -4.348569         0.120310        -2.744270
 H        -2.761306         0.217552        -3.710588
 H        -2.673364        -0.497581         0.719433
 H        -3.774249        -1.432757        -0.589867
 H        -1.589412        -2.042392        -1.802972
 H        -0.895242         2.027769         0.467199
 H         0.065814         1.981560        -0.753560
 H        -2.776456         2.031840        -0.586271
 H        -1.695516         2.039776        -2.083850
