19
Iteration:  3460charge 0 multiplicity 1
 C        -3.246608         0.353893        -2.600837
 C        -2.420708        -0.045137        -1.452916
 C        -2.992123        -1.214875        -0.684253
 C        -1.562791        -1.330089        -1.213799
 O        -0.495060        -1.207283        -0.241507
 C         0.079444         0.091963        -0.045343
 O         0.552598         0.325177         1.074138
 C        -0.367737         1.130675        -0.996677
 C        -1.881885         1.172438        -0.747236
 H        -3.835420        -0.428149        -3.120791
 H        -4.037457         1.068978        -2.248874
 H        -2.693829         0.817842        -3.366003
 H        -3.317570        -1.278186         0.383216
 H        -3.643589        -1.841601        -1.272921
 H        -1.463299        -2.024193        -2.094515
 H        -0.019876         2.065830        -0.704195
 H        -0.028293         0.848682        -2.068163
 H        -2.150681         1.341142         0.360658
 H        -2.252505         2.222895        -1.127696
