19
Iteration:  1861
 C        -2.798964         0.001583        -2.872399
 C        -2.517928        -0.053582        -1.431723
 C        -3.092304        -1.295053        -0.734152
 C        -1.653585        -1.131055        -1.058228
 O        -0.792371        -1.028494         0.094863
 C         0.049129         0.119085        -0.038567
 O         1.129339         0.134883         0.487221
 C        -0.628209         1.373714        -0.567952
 C        -2.162261         1.175173        -0.696431
 H        -2.746070        -0.990355        -3.481580
 H        -3.852428         0.436725        -3.109488
 H        -2.187772         0.725910        -3.435939
 H        -3.351616        -1.061079         0.368594
 H        -3.815991        -1.967240        -1.300145
 H        -1.184396        -1.719480        -1.844622
 H        -0.287394         2.291114        -0.057387
 H        -0.311785         1.552015        -1.677644
 H        -2.674719         1.163811         0.335177
 H        -2.559844         2.175065        -1.149868
