19
Iteration:  3197
 C        -2.884990        -0.149701        -3.106416
 C        -2.492534        -0.005795        -1.526897
 C        -3.086056        -0.772396        -0.388214
 C        -1.774161        -1.265351        -0.921662
 O        -0.543461        -1.151980        -0.272930
 C        -0.085131         0.073356         0.085197
 O         1.136315         0.256260         0.183746
 C        -1.052244         1.139271         0.253555
 C        -1.726380         1.247362        -1.079417
 H        -3.412012        -1.152419        -3.263113
 H        -3.787336         0.518028        -3.416275
 H        -2.046787        -0.166465        -3.822775
 H        -2.989809        -0.320320         0.578699
 H        -3.854266        -1.436335        -0.680146
 H        -1.816092        -2.136594        -1.487301
 H        -1.811152         0.977385         1.025616
 H        -0.470248         2.002710         0.734539
 H        -2.330460         2.027705        -1.011965
 H        -0.972076         1.410140        -1.882037
