19
Iteration:   664
 C        -3.000556        -0.106100        -2.945815
 C        -2.601800        -0.031707        -1.509431
 C        -3.069200        -0.917144        -0.424267
 C        -1.722164        -1.218704        -1.073327
 O        -0.493276        -1.104879        -0.378812
 C         0.050207         0.034125         0.036107
 O         1.050469         0.079836         0.752096
 C        -0.656413         1.277043        -0.360245
 C        -2.068005         1.291899        -0.949958
 H        -3.150392        -1.062634        -3.402004
 H        -4.052991         0.371091        -3.009542
 H        -2.334051         0.678501        -3.515543
 H        -2.977054        -0.535970         0.654125
 H        -3.869536        -1.728479        -0.624101
 H        -1.756081        -2.083849        -1.719569
 H        -0.571142         1.848047         0.577452
 H         0.035435         1.681488        -0.927973
 H        -2.742302         1.887777        -0.286698
 H        -1.906041         1.973964        -1.840407
