19
Iteration:  4992
 C        -2.812982        -0.091087        -2.973363
 C        -2.466423         0.011140        -1.528272
 C        -3.288518        -0.844549        -0.537721
 C        -1.743240        -1.214385        -0.875312
 O        -0.622531        -1.205806        -0.040192
 C         0.105365         0.059870        -0.117700
 O         1.280134         0.074651         0.178735
 C        -1.004347         1.218583         0.081882
 C        -1.928958         1.381498        -1.014868
 H        -3.033832        -1.211442        -3.167687
 H        -3.721212         0.502588        -3.366311
 H        -1.917696         0.347763        -3.472022
 H        -3.718166        -0.312922         0.331789
 H        -3.887403        -1.691978        -0.767461
 H        -1.702886        -2.129118        -1.512265
 H        -1.666200         0.912336         0.983166
 H        -0.431287         2.219337         0.237107
 H        -2.701130         2.033910        -0.912182
 H        -1.290087         1.759979        -1.839287
