19
Iteration:  3419
 C        -3.121377         0.200547        -2.776216
 C        -2.571490        -0.024494        -1.387783
 C        -2.968028        -1.218528        -0.615853
 C        -1.612350        -1.157008        -1.211869
 O        -0.608645        -1.093659        -0.219723
 C         0.115339         0.057765        -0.008833
 O         0.801443         0.118852         0.992658
 C        -0.493350         1.194657        -0.869117
 C        -1.971770         1.249291        -0.796327
 H        -3.325952        -0.737238        -3.280439
 H        -4.108848         0.750453        -2.695249
 H        -2.508989         0.836754        -3.411399
 H        -2.986634        -1.163773         0.522069
 H        -3.697186        -1.986545        -0.986458
 H        -1.218245        -1.808001        -2.056210
 H        -0.078247         2.164658        -0.476615
 H        -0.256206         1.080296        -1.900982
 H        -2.247860         1.217517         0.204534
 H        -2.413359         2.202280        -1.125410
