19
Iteration:   336
 C        -3.394498        -0.168891        -2.780217
 C        -2.455434        -0.083222        -1.539064
 C        -2.842373        -0.824126        -0.255383
 C        -1.616993        -1.261539        -1.220126
 O        -0.332202        -1.088087        -0.654168
 C        -0.048885         0.033697         0.117052
 O         0.820464        -0.025944         0.952571
 C        -0.794855         1.390450        -0.162798
 C        -1.784796         1.360072        -1.310295
 H        -3.621120        -1.175717        -3.011981
 H        -4.398927         0.337528        -2.635921
 H        -2.898368         0.423820        -3.569790
 H        -2.511949        -0.523475         0.679068
 H        -3.699697        -1.428141        -0.310134
 H        -1.713222        -2.230425        -1.780280
 H        -1.167374         1.682248         0.696544
 H         0.076528         2.104015        -0.412273
 H        -2.603660         2.091595        -1.233238
 H        -1.242433         1.766459        -2.234513
