19
Iteration:   150
 C        -2.885543        -0.036460        -2.968280
 C        -2.432158        -0.023175        -1.484082
 C        -3.194714        -1.003608        -0.571707
 C        -1.725558        -1.243767        -0.970192
 O        -0.658768        -1.130847         0.021492
 C         0.048353         0.053186        -0.012543
 O         1.229548         0.077718         0.229932
 C        -0.868189         1.288621        -0.049223
 C        -2.012091         1.347625        -1.025699
 H        -3.308186        -1.004877        -3.078130
 H        -3.754263         0.656453        -3.186504
 H        -2.150683         0.361588        -3.696161
 H        -3.083904        -0.835358         0.456594
 H        -3.962225        -1.674820        -0.983204
 H        -1.482214        -2.071208        -1.592687
 H        -1.229040         1.347360         1.121543
 H        -0.109128         2.192697        -0.127983
 H        -2.821014         2.042510        -0.808885
 H        -1.615697         1.829751        -1.994844
