19
Iteration:  4661charge 0 multiplicity 1
 C        -3.282114        -0.054333        -2.761632
 C        -2.402217        -0.043581        -1.516785
 C        -2.870268        -0.806575        -0.380200
 C        -1.690727        -1.251277        -1.199028
 O        -0.444339        -1.151130        -0.464214
 C        -0.017134         0.052445         0.056046
 O         0.901843        -0.011352         0.816865
 C        -0.804819         1.318705        -0.138306
 C        -1.816210         1.297821        -1.282840
 H        -3.238735        -1.059618        -3.193513
 H        -4.332958         0.050502        -2.474628
 H        -2.942655         0.673565        -3.576506
 H        -2.667162        -0.417613         0.599727
 H        -3.912214        -1.100481        -0.534057
 H        -1.730257        -2.236868        -1.743176
 H        -1.358844         1.307633         0.772514
 H        -0.157004         2.125451        -0.170314
 H        -2.488559         2.164594        -1.284146
 H        -1.111181         1.514294        -2.212594
