19
Iteration:  1373charge 0 multiplicity 1
 C        -2.981534         0.215979        -2.811792
 C        -2.540330        -0.066486        -1.429447
 C        -3.051247        -1.277129        -0.766358
 C        -1.578368        -1.227838        -1.078802
 O        -0.711208        -1.044682         0.035237
 C         0.026887         0.130536         0.014570
 O         1.055220         0.249879         0.732045
 C        -0.605801         1.196549        -0.893305
 C        -2.132393         1.137068        -0.651700
 H        -3.007311        -0.642004        -3.425116
 H        -3.964656         0.730678        -2.829039
 H        -2.299079         0.752275        -3.456939
 H        -3.419768        -1.273702         0.184125
 H        -3.519084        -1.973832        -1.322703
 H        -1.131161        -1.911637        -1.756986
 H        -0.133906         2.217351        -0.588093
 H        -0.132370         1.053276        -1.920052
 H        -2.379882         0.948139         0.345612
 H        -2.397550         2.104962        -0.933079
