19
Iteration:   234charge 0 multiplicity 1
 C        -3.259644        -0.151004        -2.877505
 C        -2.494354        -0.019586        -1.522620
 C        -3.012491        -0.857971        -0.342404
 C        -1.723322        -1.243995        -1.124887
 O        -0.426568        -1.126903        -0.496624
 C         0.106494         0.096921         0.015028
 O         1.064379         0.042417         0.772181
 C        -0.887385         1.266040         0.000399
 C        -1.839012         1.366321        -1.279515
 H        -3.551910        -1.201122        -3.205217
 H        -4.043657         0.563011        -2.913321
 H        -2.503631         0.027322        -3.691992
 H        -2.920316        -0.482542         0.787891
 H        -4.001615        -1.481640        -0.441394
 H        -1.736093        -2.075282        -1.846926
 H        -1.358734         1.216925         0.853745
 H        -0.282419         2.218146        -0.001867
 H        -2.577804         2.157231        -1.099263
 H        -1.129760         1.514330        -2.121822
