19
Iteration:  1384
 C        -2.950530         0.183153        -2.880463
 C        -2.541142        -0.067431        -1.432657
 C        -3.108964        -1.302510        -0.749245
 C        -1.618621        -1.252533        -1.001192
 O        -0.603304        -1.043124         0.040366
 C         0.028412         0.142798         0.008947
 O         1.000083         0.194079         0.660382
 C        -0.576344         1.268623        -0.791666
 C        -2.103495         1.188093        -0.701805
 H        -3.003066        -0.719244        -3.422140
 H        -3.979855         0.610914        -2.908509
 H        -2.281495         0.971647        -3.209351
 H        -3.392130        -1.361455         0.240365
 H        -3.621462        -1.839712        -1.446592
 H        -1.245488        -1.895349        -1.754361
 H        -0.142429         2.220683        -0.305857
 H        -0.376049         1.179193        -1.903415
 H        -2.337666         1.150067         0.326922
 H        -2.748605         1.935905        -1.082489
