19
Iteration:  3366charge 0 multiplicity 1
 C        -2.914173         0.034562        -2.932516
 C        -2.512060        -0.060316        -1.472996
 C        -3.158289        -0.995843        -0.582185
 C        -1.717402        -1.250614        -1.065851
 O        -0.591276        -1.146613        -0.197918
 C         0.039591         0.085231        -0.038717
 O         1.105762         0.090829         0.611101
 C        -0.588056         1.330027        -0.403527
 C        -2.116345         1.236756        -0.779663
 H        -3.001632        -0.929296        -3.426161
 H        -3.925403         0.470746        -3.130813
 H        -2.148957         0.578324        -3.580201
 H        -3.397450        -0.634594         0.487363
 H        -3.896680        -1.712900        -1.006405
 H        -1.557355        -2.074222        -1.858134
 H        -0.663116         1.819896         0.663932
 H         0.015947         1.939718        -1.018723
 H        -2.848886         1.428708         0.103089
 H        -2.428589         2.031027        -1.383384
