19
Iteration:  1213
 C        -3.411667        -0.038434        -2.810673
 C        -2.536382        -0.046659        -1.523941
 C        -2.825888        -1.027614        -0.479414
 C        -1.552091        -1.229099        -1.271019
 O        -0.395069        -1.189800        -0.364101
 C         0.023369         0.069331         0.133197
 O         0.909814         0.098034         0.945763
 C        -0.681928         1.388130        -0.307963
 C        -2.004430         1.333728        -1.221383
 H        -3.652753        -1.099958        -2.977906
 H        -4.173114         0.752889        -2.759948
 H        -2.686375         0.064635        -3.705378
 H        -2.599758        -0.893359         0.612304
 H        -3.610631        -1.797105        -0.576153
 H        -1.539224        -2.052025        -1.900874
 H        -0.880251         1.815015         0.670189
 H         0.092442         1.976941        -0.661302
 H        -2.806208         2.105129        -0.786424
 H        -1.734820         1.787272        -2.286633
