19
Iteration:  3839charge 0 multiplicity 1
 C        -3.093562         0.078481        -2.776277
 C        -2.458593        -0.022043        -1.441217
 C        -3.059106        -1.134031        -0.601775
 C        -1.670854        -1.191440        -1.158512
 O        -0.537516        -1.167653        -0.279619
 C         0.048685         0.050524         0.043636
 O         0.880095         0.136385         0.909774
 C        -0.493923         1.239908        -0.783401
 C        -2.034741         1.312195        -0.750555
 H        -3.245727        -0.931759        -3.212114
 H        -4.049551         0.534432        -2.578902
 H        -2.662376         0.839309        -3.461587
 H        -3.352651        -0.727376         0.385613
 H        -3.869001        -1.618026        -1.198410
 H        -1.597984        -1.777283        -2.086454
 H         0.021348         2.059949        -0.381031
 H        -0.159267         1.077855        -1.731646
 H        -2.279391         1.376697         0.269735
 H        -2.367271         2.245077        -1.303145
