19
Iteration:  4178charge 0 multiplicity 1
 C        -3.106872        -0.038211        -2.967320
 C        -2.489479        -0.015710        -1.526703
 C        -2.993346        -0.853012        -0.354508
 C        -1.714664        -1.286640        -1.015980
 O        -0.466889        -1.164760        -0.353956
 C         0.025150         0.093958         0.026769
 O         1.161999        -0.003899         0.483405
 C        -1.042041         1.322896         0.096090
 C        -1.827198         1.295072        -1.201347
 H        -3.584025        -0.978753        -3.306987
 H        -3.873728         0.726747        -3.016357
 H        -2.344610         0.203354        -3.672373
 H        -3.066113        -0.264903         0.543011
 H        -3.917992        -1.435480        -0.463924
 H        -1.805305        -2.138643        -1.708766
 H        -1.645606         0.981312         0.995187
 H        -0.582777         2.285770         0.378388
 H        -2.631487         2.163439        -1.359974
 H        -1.102254         1.515323        -1.995387
