19
Iteration:  1737charge 0 multiplicity 1
 C        -2.938704        -0.082977        -3.046755
 C        -2.566938        -0.046716        -1.530132
 C        -3.082221        -1.174825        -0.460166
 C        -1.724147        -1.146816        -1.058211
 O        -0.489792        -1.112866        -0.279632
 C         0.044544         0.120065         0.012673
 O         1.006172         0.125264         0.777383
 C        -0.626623         1.379133        -0.552108
 C        -2.160496         1.274706        -0.698957
 H        -2.664872        -1.050629        -3.521075
 H        -3.975884         0.041649        -3.314269
 H        -2.272525         0.624837        -3.611209
 H        -2.961285        -0.788656         0.473758
 H        -3.888828        -1.801881        -0.693452
 H        -1.494792        -1.842440        -1.862191
 H        -0.124697         2.080712         0.085905
 H        -0.154774         1.697321        -1.438812
 H        -2.789387         1.407435         0.278525
 H        -2.508300         2.148789        -1.195474
