19
Iteration:  4879charge 0 multiplicity 1
 C        -3.017062        -0.168224        -3.030431
 C        -2.390875        -0.069872        -1.642564
 C        -3.191822        -0.774515        -0.509347
 C        -1.878967        -1.281999        -0.971336
 O        -0.591030        -1.120982        -0.291128
 C        -0.001910         0.098418         0.139295
 O         1.226139         0.129747         0.295074
 C        -0.887671         1.294900         0.269913
 C        -1.726506         1.255226        -1.109139
 H        -3.276704        -1.178089        -3.305126
 H        -3.947175         0.368837        -2.926186
 H        -2.580393         0.345085        -3.928844
 H        -3.176144        -0.359155         0.516436
 H        -4.007674        -1.491252        -0.699194
 H        -1.919092        -2.302884        -1.277503
 H        -1.486326         1.052872         1.275858
 H        -0.249597         2.179117         0.354285
 H        -2.493825         1.941157        -0.866868
 H        -1.103675         1.645378        -1.823068
