19
Iteration:  1298charge 0 multiplicity 1
 C        -3.053400         0.052513        -2.881250
 C        -2.544411        -0.057480        -1.422747
 C        -2.984603        -1.122393        -0.516469
 C        -1.619172        -1.284775        -1.165198
 O        -0.473459        -1.173580        -0.336033
 C        -0.037390         0.121651         0.066707
 O         0.874212         0.221417         0.901849
 C        -0.611303         1.277202        -0.713613
 C        -2.060077         1.291183        -0.770480
 H        -3.157516        -0.895118        -3.336181
 H        -4.040332         0.514586        -3.029091
 H        -2.272046         0.606559        -3.524454
 H        -2.974701        -0.855548         0.529744
 H        -3.825603        -1.714076        -0.769174
 H        -1.496845        -2.030573        -1.899471
 H        -0.081979         2.211637        -0.164286
 H        -0.004789         1.121241        -1.718528
 H        -2.447663         1.373856         0.210385
 H        -2.417114         2.154301        -1.350765
