19
Iteration:  1631charge 0 multiplicity 1
 C        -3.114944         0.134396        -2.772289
 C        -2.524237        -0.067777        -1.385819
 C        -2.984022        -1.285032        -0.637414
 C        -1.565134        -1.247451        -1.145547
 O        -0.502143        -1.127648        -0.211946
 C        -0.009864         0.156036        -0.005993
 O         0.687963         0.256638         0.937550
 C        -0.454095         1.333884        -0.915540
 C        -1.962142         1.186131        -0.705261
 H        -3.668085        -0.783153        -3.116630
 H        -3.743426         1.007943        -2.759949
 H        -2.316918         0.333631        -3.447337
 H        -3.243247        -1.208280         0.370815
 H        -3.753090        -1.799845        -1.144910
 H        -1.339325        -1.895924        -2.009845
 H         0.083370         2.166941        -0.542124
 H        -0.206202         0.996034        -2.058580
 H        -2.224276         1.175348         0.330148
 H        -2.421872         2.012880        -1.245837
