19
Iteration:  4266charge 0 multiplicity 1
 C        -3.335873        -0.020119        -2.861661
 C        -2.573078        -0.024953        -1.477250
 C        -2.873308        -0.936200        -0.325453
 C        -1.693268        -1.165949        -1.249383
 O        -0.396035        -1.094828        -0.575360
 C        -0.016345        -0.015458         0.161633
 O         0.915496         0.016193         0.952790
 C        -0.714365         1.266501        -0.242379
 C        -1.857863         1.324998        -1.202802
 H        -3.535960        -1.025608        -3.225766
 H        -4.269884         0.463900        -2.850852
 H        -2.652056         0.354769        -3.582124
 H        -2.500708        -0.622774         0.653428
 H        -3.546829        -1.749781        -0.226484
 H        -1.539894        -2.069659        -1.908865
 H        -0.617204         2.002124         0.650833
 H         0.058817         1.667065        -0.883938
 H        -2.657309         2.104697        -0.977747
 H        -1.509845         1.571311        -2.161781
