19
Iteration:  3739charge 0 multiplicity 1
 C        -3.031182        -0.048917        -2.954422
 C        -2.456625         0.039748        -1.494539
 C        -3.110078        -0.968642        -0.491106
 C        -1.702987        -1.262100        -1.031599
 O        -0.601065        -1.170098        -0.167126
 C         0.045795         0.049905         0.049033
 O         1.218187         0.052487         0.363328
 C        -0.905326         1.299968         0.032965
 C        -1.911932         1.353861        -1.118855
 H        -3.750946        -0.866322        -3.042314
 H        -3.592667         0.810204        -3.171861
 H        -2.235290        -0.140297        -3.702110
 H        -3.201615        -0.724202         0.559676
 H        -3.980220        -1.433092        -0.954391
 H        -1.626358        -2.129622        -1.782310
 H        -1.425942         1.250794         1.026387
 H        -0.252587         2.150416         0.040537
 H        -2.677788         2.068258        -0.878502
 H        -1.479522         1.911484        -1.981117
