19
Iteration:  2844charge 0 multiplicity 1
 C        -2.717439        -0.070246        -3.060832
 C        -2.360651        -0.053788        -1.524449
 C        -3.156265        -0.930259        -0.571441
 C        -1.798108        -1.323804        -0.822390
 O        -0.631188        -1.205316         0.097999
 C        -0.041839         0.099979        -0.006762
 O         1.113809         0.180039        -0.166381
 C        -0.967970         1.301581         0.283016
 C        -1.912684         1.307465        -0.969483
 H        -2.932413        -1.084617        -3.359484
 H        -3.476260         0.674204        -3.284172
 H        -1.823968         0.391898        -3.572388
 H        -3.524546        -0.383421         0.268500
 H        -3.938559        -1.584832        -1.097741
 H        -1.600061        -2.043782        -1.554688
 H        -1.619548         1.066971         1.231701
 H        -0.535391         2.285046         0.284766
 H        -2.718039         1.928824        -0.933142
 H        -1.317852         1.765255        -1.675480
