19
Iteration:  1033
 C        -2.930412        -0.073783        -2.888162
 C        -2.478807        -0.091161        -1.536563
 C        -3.143847        -1.118896        -0.665913
 C        -1.669765        -1.246138        -1.035888
 O        -0.688343        -1.036296        -0.013645
 C        -0.003759         0.146628         0.071025
 O         1.180882         0.110355         0.272272
 C        -0.749282         1.376074        -0.079389
 C        -1.972588         1.226535        -0.917921
 H        -3.536882        -1.006758        -3.264682
 H        -3.609826         0.757190        -3.213605
 H        -2.108870         0.220656        -3.580967
 H        -3.305424        -0.981922         0.440140
 H        -3.901287        -1.884431        -1.141518
 H        -1.381595        -1.964382        -1.733913
 H        -1.019440         1.830265         0.920856
 H        -0.126417         2.081499        -0.456423
 H        -2.909252         1.740056        -0.462669
 H        -1.822496         1.977256        -1.856374
