19
Iteration:  1720
 C        -3.010464        -0.001365        -2.904257
 C        -2.554365        -0.040909        -1.441768
 C        -3.031847        -1.139552        -0.556089
 C        -1.641705        -1.220089        -1.123482
 O        -0.536930        -1.086486        -0.255002
 C         0.010265         0.139064         0.072185
 O         0.950413         0.159490         0.828827
 C        -0.563493         1.347020        -0.660106
 C        -2.083931         1.207239        -0.816264
 H        -2.769071        -0.935353        -3.500369
 H        -4.108337         0.185710        -2.998303
 H        -2.552490         0.758142        -3.521118
 H        -3.316078        -0.903232         0.526762
 H        -3.633599        -2.007155        -0.960572
 H        -1.439762        -2.039354        -1.849218
 H        -0.475596         2.223110         0.028245
 H         0.038438         1.310524        -1.723042
 H        -2.451353         1.168996         0.217163
 H        -2.627688         2.165062        -1.079952
