19
Iteration:  1445
 C        -2.817657        -0.069282        -3.009738
 C        -2.486017        -0.017928        -1.534141
 C        -3.073123        -1.094950        -0.579609
 C        -1.747501        -1.230330        -1.022816
 O        -0.542741        -1.134883        -0.165020
 C         0.013245         0.089010         0.048195
 O         1.170870         0.116825         0.505596
 C        -0.762226         1.414849        -0.315800
 C        -2.284067         1.310092        -0.757269
 H        -2.885167        -1.155385        -3.331782
 H        -3.732674         0.459411        -3.288097
 H        -2.040497         0.241478        -3.673284
 H        -3.269704        -0.795113         0.462121
 H        -3.686897        -2.019351        -0.853069
 H        -1.577469        -2.161386        -1.600038
 H        -0.519651         2.114082         0.392645
 H        -0.273980         1.844205        -1.187199
 H        -2.892334         1.303265         0.191662
 H        -2.506290         2.229300        -1.352444
