19
Iteration:  1321
 C        -3.012095         0.165095        -2.758323
 C        -2.474969        -0.088593        -1.377837
 C        -3.060374        -1.281298        -0.670658
 C        -1.644471        -1.244338        -1.089044
 O        -0.546287        -1.120285        -0.175169
 C         0.060374         0.079991        -0.028304
 O         0.851292         0.246362         0.892562
 C        -0.547875         1.325638        -0.883301
 C        -2.071076         1.215410        -0.755649
 H        -3.493030        -0.680496        -3.231105
 H        -3.827766         0.878032        -2.615321
 H        -2.242328         0.601695        -3.508046
 H        -3.344797        -1.173102         0.431940
 H        -3.692060        -2.008939        -1.215090
 H        -1.360204        -1.857369        -1.878913
 H         0.064338         2.236237        -0.419641
 H        -0.202489         1.165412        -2.002459
 H        -2.441221         1.337151         0.280148
 H        -2.564253         2.009371        -1.392010
