19
Iteration:  4057charge 0 multiplicity 1
 C        -2.932439        -0.007015        -2.924234
 C        -2.606956         0.011519        -1.537042
 C        -3.149417        -1.062152        -0.507782
 C        -1.762235        -1.178913        -1.075944
 O        -0.627542        -1.073089        -0.115961
 C         0.091784         0.018176         0.050459
 O         1.254738         0.060248         0.406745
 C        -0.737804         1.269784        -0.108187
 C        -2.005471         1.302495        -1.050519
 H        -3.660154        -0.818609        -3.147808
 H        -3.514060         0.903663        -3.100449
 H        -2.161566        -0.106667        -3.602690
 H        -3.336600        -1.021121         0.616914
 H        -3.917651        -1.765654        -0.949217
 H        -1.435871        -1.963007        -1.732675
 H        -1.204236         1.405891         0.867947
 H         0.002991         2.175788        -0.219882
 H        -2.855062         1.769983        -0.493560
 H        -1.940733         1.964233        -1.901355
