19
Iteration:  1829charge 0 multiplicity 1
 C        -3.004884        -0.038546        -2.984943
 C        -2.436070        -0.036723        -1.547443
 C        -3.015509        -1.294178        -0.715782
 C        -1.589010        -1.184851        -1.015684
 O        -0.743224        -1.000162         0.078629
 C         0.013165         0.160607         0.054753
 O         1.160932         0.032604         0.452486
 C        -0.643333         1.465660        -0.373456
 C        -2.157052         1.233932        -0.780870
 H        -3.565853        -0.996927        -3.257887
 H        -3.800374         0.792296        -2.994546
 H        -2.199433         0.146710        -3.724622
 H        -3.409841        -0.975197         0.311217
 H        -3.618116        -2.074956        -1.263584
 H        -1.269134        -1.956479        -1.705610
 H        -0.434084         2.359330         0.211694
 H        -0.230318         1.736086        -1.254806
 H        -2.869492         1.188689         0.067019
 H        -2.516511         2.178048        -1.362036
