19
Iteration:  4118
 C        -2.999549        -0.073111        -2.996494
 C        -2.454493        -0.001777        -1.531288
 C        -3.041807        -0.787073        -0.366487
 C        -1.804002        -1.223163        -0.996965
 O        -0.524716        -1.154374        -0.216475
 C        -0.014965         0.027446         0.038430
 O         1.188904         0.133826         0.245043
 C        -1.076587         1.104292         0.207189
 C        -1.762921         1.326281        -1.198235
 H        -3.126965        -1.123025        -3.244054
 H        -4.023010         0.400597        -2.995747
 H        -2.436993         0.528853        -3.797288
 H        -2.995158        -0.295333         0.599864
 H        -3.944720        -1.298198        -0.646115
 H        -1.721423        -2.097134        -1.654584
 H        -1.699153         0.612509         0.945299
 H        -0.633689         2.026036         0.687490
 H        -2.484055         2.117123        -1.202029
 H        -0.927873         1.568979        -1.880164
