19
Iteration:  2183charge 0 multiplicity 1
 C        -3.429950        -0.140600        -2.806558
 C        -2.468320        -0.048720        -1.586584
 C        -2.871261        -0.838386        -0.392598
 C        -1.640649        -1.275221        -1.176562
 O        -0.298064        -1.021939        -0.625933
 C        -0.103084         0.055553         0.249625
 O         0.965398         0.108451         0.791309
 C        -0.978263         1.252493         0.003181
 C        -1.655117         1.261831        -1.325472
 H        -3.881068        -1.071518        -2.998362
 H        -4.324936         0.526889        -2.703794
 H        -2.978417         0.185801        -3.732093
 H        -2.596779        -0.499339         0.618169
 H        -3.576964        -1.702753        -0.432261
 H        -1.608637        -2.288555        -1.490759
 H        -1.712065         1.250848         0.851563
 H        -0.388846         2.297714         0.302477
 H        -2.184776         2.140245        -1.452789
 H        -0.882009         1.164126        -2.043727
