19
Iteration:  4016charge 0 multiplicity 1
 C        -3.044634        -0.027272        -2.964411
 C        -2.424365        -0.020208        -1.504361
 C        -3.060702        -1.046127        -0.518802
 C        -1.700528        -1.234201        -1.071738
 O        -0.621890        -1.155641        -0.212857
 C        -0.022466         0.063335         0.120711
 O         1.107063         0.035646         0.471697
 C        -0.621719         1.384840        -0.168165
 C        -2.066205         1.347964        -0.973785
 H        -3.484718        -1.059415        -3.179159
 H        -3.893005         0.657088        -3.095162
 H        -2.217028         0.063493        -3.757259
 H        -3.122372        -0.754657         0.550281
 H        -3.956123        -1.582308        -0.866245
 H        -1.524518        -1.944959        -1.888351
 H        -0.719592         1.960058         0.764253
 H         0.141502         1.831871        -0.623704
 H        -2.743813         1.548174        -0.202824
 H        -2.178313         2.162402        -1.723788
