19
Iteration:  4663charge 0 multiplicity 1
 C        -3.291563        -0.056034        -2.765495
 C        -2.416968        -0.041736        -1.534087
 C        -2.857727        -0.801109        -0.380713
 C        -1.703009        -1.256442        -1.192674
 O        -0.444008        -1.144954        -0.486434
 C        -0.027551         0.033730         0.066487
 O         0.909209        -0.001787         0.836878
 C        -0.810841         1.313995        -0.139435
 C        -1.801124         1.299775        -1.288755
 H        -3.220316        -1.075491        -3.155814
 H        -4.332225         0.058348        -2.476780
 H        -2.953116         0.683316        -3.548575
 H        -2.633485        -0.457811         0.615433
 H        -3.894252        -1.139956        -0.465218
 H        -1.663511        -2.197039        -1.714043
 H        -1.333080         1.328080         0.781038
 H        -0.088905         2.114135        -0.207590
 H        -2.486407         2.198096        -1.293850
 H        -1.155042         1.510440        -2.174121
