19
Iteration:  1111charge 0 multiplicity 1
 C        -3.136811        -0.166207        -2.909315
 C        -2.458457        -0.067912        -1.583552
 C        -3.074744        -0.832757        -0.382031
 C        -1.715094        -1.271702        -1.065623
 O        -0.383086        -1.061036        -0.522449
 C         0.017418         0.049483         0.064525
 O         1.099697         0.106482         0.652130
 C        -1.002077         1.271857         0.074784
 C        -1.805606         1.331982        -1.190631
 H        -3.415207        -1.229618        -3.101415
 H        -4.200855         0.165999        -2.718887
 H        -2.730147         0.284967        -3.898498
 H        -2.886130        -0.419471         0.660578
 H        -3.911649        -1.512727        -0.456939
 H        -1.742460        -2.318285        -1.511141
 H        -1.574004         1.438031         1.074713
 H        -0.354436         2.081561         0.179363
 H        -2.733928         2.031518        -1.191479
 H        -1.025583         1.563836        -2.065135
