19
Iteration:  4872charge 0 multiplicity 1
 C        -3.028191        -0.154272        -2.937783
 C        -2.399232        -0.080969        -1.652175
 C        -3.125201        -0.739410        -0.513267
 C        -1.854878        -1.269970        -0.970680
 O        -0.604771        -1.130248        -0.350336
 C         0.035180         0.077935         0.195725
 O         1.207143         0.112591         0.356654
 C        -0.880578         1.245282         0.213139
 C        -1.790135         1.301824        -1.140643
 H        -3.155879        -1.265825        -3.237910
 H        -4.127487         0.147986        -2.892780
 H        -2.510628         0.385862        -3.779821
 H        -3.237000        -0.342301         0.475645
 H        -3.951558        -1.418439        -0.760099
 H        -1.859097        -2.315351        -1.441990
 H        -1.389407         1.217525         1.151646
 H        -0.275055         2.141866         0.325615
 H        -2.600569         2.048611        -1.027364
 H        -1.231273         1.704910        -2.101902
