19
Iteration:   118charge 0 multiplicity 1
 C        -2.898169        -0.037191        -2.978637
 C        -2.418402        -0.071150        -1.510496
 C        -3.205553        -1.089484        -0.575544
 C        -1.747598        -1.243111        -0.944546
 O        -0.716564        -1.003619        -0.030194
 C        -0.013128         0.115075         0.107074
 O         1.204550         0.067050         0.054657
 C        -0.860242         1.342020         0.171350
 C        -1.825867         1.307412        -1.069681
 H        -3.481768        -0.907845        -3.165906
 H        -3.576349         0.872633        -3.034581
 H        -2.160767        -0.238175        -3.779591
 H        -3.366885        -1.020638         0.444607
 H        -3.880675        -1.854205        -0.977008
 H        -1.568037        -2.139963        -1.484045
 H        -1.434610         1.389356         1.145632
 H        -0.058477         2.166150         0.106251
 H        -2.697667         1.947784        -0.949306
 H        -1.179736         1.480046        -1.945035
