19
Iteration:  1699charge 0 multiplicity 1
 C        -3.129546         0.135333        -2.791688
 C        -2.433351        -0.073404        -1.494317
 C        -3.034730        -1.302299        -0.679794
 C        -1.603821        -1.303548        -1.141155
 O        -0.553643        -1.083518        -0.132105
 C         0.050833         0.134495         0.010532
 O         0.874072         0.240018         0.905381
 C        -0.480174         1.293001        -0.745757
 C        -2.073886         1.241966        -0.805177
 H        -3.176968        -0.788401        -3.361812
 H        -4.124288         0.555868        -2.537135
 H        -2.649625         0.899414        -3.390914
 H        -3.197314        -1.150532         0.453532
 H        -4.006303        -1.766441        -1.068017
 H        -1.182857        -1.967067        -1.925730
 H        -0.224956         2.323762        -0.366589
 H        -0.425826         0.970951        -1.952463
 H        -2.533358         1.317430         0.152632
 H        -2.372990         2.182529        -1.437226
