19
Iteration:  3993
 C        -3.046694         0.014822        -2.892648
 C        -2.532586        -0.007206        -1.488452
 C        -3.112006        -0.947037        -0.585817
 C        -1.739050        -1.236856        -1.118236
 O        -0.526438        -1.185387        -0.214953
 C         0.093199         0.006622         0.048521
 O         1.130458         0.112060         0.653305
 C        -0.622119         1.278844        -0.309867
 C        -2.148216         1.304223        -0.931186
 H        -3.123090        -1.077885        -3.258046
 H        -4.111342         0.340463        -2.890804
 H        -2.334328         0.532652        -3.636155
 H        -3.204760        -0.689923         0.517852
 H        -3.897177        -1.670494        -0.938630
 H        -1.621437        -2.076038        -1.788544
 H        -0.524629         2.044122         0.440808
 H         0.044512         1.602282        -1.027133
 H        -2.765490         1.705848        -0.223361
 H        -2.058522         2.084383        -1.718375
