19
Iteration:  4394charge 0 multiplicity 1
 C        -3.308499         0.005355        -2.860319
 C        -2.449558        -0.035087        -1.619920
 C        -2.814186        -0.800352        -0.261122
 C        -1.701342        -1.287087        -1.153435
 O        -0.407829        -1.110962        -0.583472
 C        -0.055338        -0.006749         0.182490
 O         0.975587        -0.002085         0.754560
 C        -0.950203         1.277162        -0.016625
 C        -1.768888         1.304945        -1.285704
 H        -3.992639        -0.889178        -2.628646
 H        -3.891563         0.986258        -2.910234
 H        -2.833448        -0.185812        -3.826376
 H        -2.474821        -0.391947         0.682031
 H        -3.564342        -1.560203        -0.257433
 H        -1.622948        -2.218267        -1.785030
 H        -1.550293         1.571167         0.798574
 H        -0.122832         2.032800         0.034459
 H        -2.590591         2.017566        -1.266318
 H        -1.085711         1.529954        -2.255558
