19
Iteration:  4023
 C        -3.014730        -0.039644        -2.959774
 C        -2.496048        -0.013431        -1.526861
 C        -3.024070        -1.031301        -0.523687
 C        -1.706560        -1.251904        -1.082853
 O        -0.604570        -1.133728        -0.165408
 C        -0.030546         0.034526         0.039048
 O         1.120988        -0.028412         0.470650
 C        -0.663252         1.473130        -0.135474
 C        -2.085098         1.344986        -0.973077
 H        -3.533201        -1.003926        -2.980669
 H        -3.720214         0.787019        -3.174556
 H        -2.283671         0.090338        -3.680230
 H        -3.064793        -0.739434         0.559329
 H        -3.713961        -1.779439        -1.000764
 H        -1.503560        -2.111139        -1.702408
 H        -0.894004         1.902068         0.830701
 H         0.224694         2.033945        -0.787400
 H        -2.761718         1.668037        -0.137552
 H        -1.993999         2.130929        -1.706375
