19
Iteration:  3163
 C        -3.091639        -0.111315        -2.922568
 C        -2.491446        -0.053219        -1.516002
 C        -3.108595        -0.855081        -0.468721
 C        -1.727631        -1.279473        -0.954185
 O        -0.414939        -1.120690        -0.393726
 C         0.044804         0.086895         0.129609
 O         1.180487         0.109665         0.542937
 C        -1.000118         1.298065         0.014205
 C        -1.850825         1.271628        -1.223640
 H        -3.877985        -0.906224        -2.909395
 H        -3.505943         0.923461        -3.151279
 H        -2.387193        -0.215688        -3.795913
 H        -3.346970        -0.606225         0.561481
 H        -3.890337        -1.466114        -0.788887
 H        -1.593344        -2.135378        -1.544310
 H        -1.792253         1.105694         0.792969
 H        -0.458637         2.243163         0.199939
 H        -2.578139         1.958401        -1.138657
 H        -1.323624         1.571616        -2.167044
