19
Iteration:  2896
 C        -2.981382        -0.133991        -3.052358
 C        -2.499848        -0.026629        -1.531563
 C        -3.073203        -0.885622        -0.422612
 C        -1.712589        -1.264070        -1.020501
 O        -0.566810        -1.085433        -0.182463
 C         0.014471         0.098695        -0.003765
 O         1.174059         0.082288         0.337074
 C        -0.977636         1.253498         0.166768
 C        -1.859353         1.353723        -1.137924
 H        -2.961962        -1.188168        -3.427008
 H        -4.001212         0.174221        -3.124371
 H        -2.241522         0.411693        -3.688218
 H        -2.994696        -0.563683         0.577882
 H        -3.944381        -1.569089        -0.510943
 H        -1.691840        -2.306354        -1.385918
 H        -1.652084         0.840247         0.988481
 H        -0.530177         2.197573         0.289817
 H        -2.769126         2.194802        -1.138005
 H        -1.074210         1.702316        -1.885778
