19
Iteration:  4953charge 0 multiplicity 1
 C        -2.739070        -0.123461        -3.010090
 C        -2.390667        -0.083296        -1.555497
 C        -3.178826        -0.795502        -0.510971
 C        -1.806392        -1.266217        -0.962311
 O        -0.665021        -1.168135        -0.090299
 C        -0.071372         0.031051         0.090926
 O         1.155185         0.122958        -0.056430
 C        -0.994542         1.336599         0.287219
 C        -1.819949         1.292037        -0.954807
 H        -3.435807        -0.891594        -3.239609
 H        -3.075227         0.818065        -3.445718
 H        -1.897577        -0.412482        -3.634482
 H        -3.169480        -0.246271         0.433455
 H        -3.900779        -1.599782        -0.707958
 H        -1.773103        -2.209964        -1.433367
 H        -1.494300         1.408206         1.219297
 H        -0.296643         2.143648         0.190422
 H        -2.790910         1.901985        -0.666630
 H        -1.226059         1.701298        -1.840887
