19
Iteration:  2925charge 0 multiplicity 1
 C        -3.129909        -0.102802        -2.894526
 C        -2.463951        -0.041977        -1.517507
 C        -3.072031        -0.807447        -0.424216
 C        -1.708348        -1.243526        -1.078071
 O        -0.390586        -1.178205        -0.494992
 C         0.001998         0.025932         0.160172
 O         1.106424         0.170411         0.660674
 C        -0.947392         1.262133         0.009209
 C        -1.867926         1.263810        -1.242336
 H        -3.583558        -1.104954        -3.123689
 H        -4.062247         0.572779        -2.848723
 H        -2.481340         0.112210        -3.729969
 H        -3.027224        -0.467131         0.618205
 H        -3.863059        -1.528129        -0.527086
 H        -1.751287        -2.282465        -1.588068
 H        -1.517518         1.388387         0.883937
 H        -0.310570         2.197463        -0.110150
 H        -2.632467         1.983189        -1.132277
 H        -1.187609         1.566472        -2.096906
