19
Iteration:  3693charge 0 multiplicity 1
 C        -3.000418        -0.086717        -2.989884
 C        -2.433790        -0.049997        -1.560251
 C        -3.189483        -0.751314        -0.375697
 C        -1.824539        -1.300753        -0.942639
 O        -0.464267        -1.253087        -0.421209
 C        -0.052375         0.018091         0.139117
 O         1.134234         0.233845         0.244023
 C        -1.001682         1.219168         0.258343
 C        -1.663554         1.305231        -1.104219
 H        -3.403702        -1.055327        -3.228176
 H        -3.844545         0.661972        -3.136649
 H        -2.169740         0.130471        -3.636994
 H        -3.361248        -0.339520         0.611306
 H        -3.953022        -1.410378        -0.800670
 H        -1.821152        -2.324325        -1.357411
 H        -1.777043         1.192221         1.087314
 H        -0.410405         2.014652         0.464649
 H        -2.287661         2.218242        -1.225507
 H        -0.919025         1.560309        -1.900093
