19
Iteration:  3199
 C        -2.872003        -0.134797        -3.115872
 C        -2.475786        -0.000369        -1.516905
 C        -3.080778        -0.761860        -0.387976
 C        -1.763441        -1.264634        -0.914202
 O        -0.537314        -1.167929        -0.263690
 C        -0.085597         0.073815         0.099060
 O         1.126194         0.251112         0.151523
 C        -1.069853         1.136497         0.271273
 C        -1.728209         1.261765        -1.100107
 H        -3.329468        -1.139569        -3.231261
 H        -3.788377         0.424287        -3.389919
 H        -2.068436        -0.183381        -3.743881
 H        -3.053444        -0.330496         0.611919
 H        -3.905819        -1.474050        -0.711355
 H        -1.879309        -2.211318        -1.491867
 H        -1.831778         0.949645         0.988692
 H        -0.447456         2.016872         0.725668
 H        -2.409575         2.088335        -1.005506
 H        -1.021279         1.398028        -1.840325
