19
Iteration:   335charge 0 multiplicity 1
 C        -3.400505        -0.160977        -2.776984
 C        -2.463848        -0.086226        -1.537454
 C        -2.843649        -0.820745        -0.259693
 C        -1.615986        -1.259606        -1.218923
 O        -0.327481        -1.092270        -0.655473
 C        -0.050497         0.038941         0.122110
 O         0.824116        -0.027760         0.953911
 C        -0.803321         1.390838        -0.167079
 C        -1.781202         1.356534        -1.320550
 H        -3.610890        -1.163348        -3.003943
 H        -4.357727         0.358116        -2.623553
 H        -2.903171         0.419325        -3.589244
 H        -2.511603        -0.539425         0.693149
 H        -3.684687        -1.505851        -0.298457
 H        -1.695138        -2.205155        -1.766900
 H        -1.196050         1.698361         0.765422
 H         0.094045         2.113370        -0.426079
 H        -2.583430         2.090458        -1.239802
 H        -1.212137         1.730521        -2.231403
