19
Iteration:  4754charge 0 multiplicity 1
 C        -3.451251        -0.097339        -2.594128
 C        -2.531659         0.069606        -1.507144
 C        -2.635941        -0.867953        -0.280157
 C        -1.593177        -1.171982        -1.356691
 O        -0.284898        -1.145758        -0.708666
 C        -0.062972         0.039882         0.145477
 O         0.635317        -0.041073         1.071898
 C        -0.851111         1.277998        -0.194030
 C        -1.661172         1.270106        -1.442171
 H        -4.320749        -0.777893        -2.577397
 H        -3.991361         0.835045        -2.815882
 H        -2.994473        -0.298281        -3.505277
 H        -2.343878        -0.303726         0.606626
 H        -3.593104        -1.368289        -0.113738
 H        -1.693304        -2.113107        -1.984369
 H        -1.342738         1.712131         0.728664
 H         0.018618         2.034309        -0.405822
 H        -2.167985         2.307132        -1.581074
 H        -0.957195         1.295869        -2.263692
