19
Iteration:  4139charge 0 multiplicity 1
 C        -3.094893        -0.111832        -2.966881
 C        -2.506248        -0.034058        -1.563695
 C        -3.195964        -0.748462        -0.443248
 C        -1.809776        -1.224928        -0.969115
 O        -0.474291        -1.244550        -0.378881
 C         0.009486        -0.009896         0.152144
 O         1.207818         0.272345         0.298334
 C        -0.992044         1.160373         0.245713
 C        -1.666548         1.270733        -1.114847
 H        -3.078715        -1.169676        -3.203666
 H        -4.105721         0.323351        -3.148886
 H        -2.461365         0.516331        -3.700017
 H        -3.343751        -0.187605         0.488781
 H        -3.941569        -1.421230        -0.840190
 H        -1.731892        -2.108865        -1.637278
 H        -1.769576         1.105481         1.005215
 H        -0.455036         2.077529         0.383348
 H        -2.158260         2.149559        -1.145989
 H        -0.836377         1.233807        -1.848256
