19
Iteration:   456
 C        -3.201516        -0.066088        -2.936817
 C        -2.509658         0.019049        -1.489679
 C        -3.015224        -0.987695        -0.508666
 C        -1.645567        -1.205246        -1.076007
 O        -0.566904        -1.158883        -0.170874
 C         0.012062         0.037385         0.110038
 O         1.130189         0.104504         0.582140
 C        -0.767953         1.271933        -0.160338
 C        -1.934914         1.292628        -1.168135
 H        -3.866522        -0.881212        -3.024238
 H        -3.853598         0.803837        -3.086805
 H        -2.417968        -0.090381        -3.714530
 H        -2.919143        -0.764353         0.544359
 H        -3.796062        -1.620832        -0.779679
 H        -1.290471        -1.771771        -2.045916
 H        -1.142383         1.650762         0.936670
 H         0.075304         2.084301        -0.492822
 H        -2.652578         1.990401        -0.832088
 H        -1.618927         1.706919        -2.170316
