19
Iteration:  2878
 C        -2.865362        -0.146067        -2.940645
 C        -2.372893        -0.007956        -1.539488
 C        -3.159577        -0.905272        -0.527183
 C        -1.810382        -1.253142        -0.966457
 O        -0.637127        -1.173142        -0.069341
 C         0.015855         0.094031         0.062233
 O         1.224174         0.181439         0.128777
 C        -0.988665         1.237179         0.165360
 C        -1.874783         1.311532        -1.100029
 H        -2.782501        -1.115203        -3.391695
 H        -3.914143         0.138423        -3.093479
 H        -2.210251         0.454129        -3.601724
 H        -3.389485        -0.436605         0.440855
 H        -4.037453        -1.457773        -0.939869
 H        -1.579677        -1.932394        -1.720485
 H        -1.638048         0.987582         1.068718
 H        -0.480947         2.208050         0.371431
 H        -2.583313         1.971411        -0.860617
 H        -1.326690         1.672457        -1.922357
