19
Iteration:  2255
 C        -2.938182        -0.071967        -2.970716
 C        -2.515704        -0.062091        -1.483922
 C        -3.090969        -0.970830        -0.461330
 C        -1.682349        -1.259746        -1.080248
 O        -0.589455        -1.168054        -0.220208
 C         0.013232         0.105752         0.069394
 O         1.159207         0.153336         0.399922
 C        -0.860354         1.324268         0.021320
 C        -2.023073         1.268098        -1.075555
 H        -3.266766        -1.133868        -3.257367
 H        -3.853072         0.493295        -3.252159
 H        -2.048163         0.190317        -3.589126
 H        -3.005549        -0.460544         0.464656
 H        -3.970045        -1.580728        -0.688642
 H        -1.501640        -2.020188        -1.911353
 H        -1.075735         1.515331         1.133559
 H        -0.152192         2.083593        -0.218300
 H        -2.795994         2.018974        -0.611229
 H        -1.503209         1.711318        -2.021613
