19
Iteration:  3476charge 0 multiplicity 1
 C        -3.251182         0.371962        -2.717430
 C        -2.532986        -0.008143        -1.365514
 C        -2.933966        -1.283499        -0.576598
 C        -1.525212        -1.182115        -1.208965
 O        -0.438227        -1.203145        -0.282781
 C        -0.002925         0.025751         0.029563
 O         0.559388         0.245697         1.090128
 C        -0.378372         1.121626        -1.021813
 C        -1.927149         1.209056        -0.819608
 H        -3.699559        -0.465766        -3.245327
 H        -4.042093         1.001496        -2.348490
 H        -2.527212         0.918443        -3.423803
 H        -2.861988        -1.076260         0.473560
 H        -3.706577        -1.975933        -1.018290
 H        -1.231648        -1.811237        -2.014588
 H         0.348979         2.019760        -0.887175
 H        -0.305578         0.863444        -2.031144
 H        -2.169611         1.330996         0.212631
 H        -2.357922         2.043022        -1.298564
