19
Iteration:  1555charge 0 multiplicity 1
 C        -3.066509        -0.118164        -2.952734
 C        -2.541733        -0.018651        -1.494770
 C        -3.120453        -1.091170        -0.563267
 C        -1.649966        -1.246161        -1.107307
 O        -0.507483        -1.140719        -0.273832
 C         0.089364         0.101246         0.069128
 O         1.044675         0.116351         0.753957
 C        -0.620675         1.456938        -0.376463
 C        -2.102727         1.299701        -0.905802
 H        -2.767893        -1.093848        -3.359307
 H        -4.119306        -0.053401        -2.971070
 H        -2.614669         0.549738        -3.573639
 H        -3.256374        -0.852380         0.492815
 H        -3.834565        -1.792889        -0.801214
 H        -1.495906        -1.912759        -1.951051
 H        -0.582660         2.084004         0.480542
 H         0.100965         1.813520        -1.137268
 H        -2.756373         1.496766        -0.189752
 H        -2.338032         2.133071        -1.537641
