19
Iteration:  4893charge 0 multiplicity 1
 C        -3.015465        -0.080045        -3.120756
 C        -2.422427        -0.080273        -1.568195
 C        -3.221062        -0.798741        -0.460470
 C        -1.793368        -1.271619        -0.906876
 O        -0.568025        -1.122490        -0.151808
 C         0.020695         0.088840         0.058807
 O         1.206357         0.139194         0.169648
 C        -0.971796         1.191343         0.265802
 C        -1.704242         1.254329        -1.039268
 H        -3.414908        -1.147305        -3.324008
 H        -3.896431         0.615464        -3.320667
 H        -2.092174         0.083306        -3.759947
 H        -3.427528        -0.228811         0.434414
 H        -4.133312        -1.330984        -0.773815
 H        -1.629422        -2.166840        -1.599340
 H        -1.691918         1.143405         1.106401
 H        -0.491949         2.159770         0.419627
 H        -2.389326         2.029070        -1.185562
 H        -0.971649         1.514967        -1.882773
