19
Iteration:  3178
 C        -2.995899        -0.130355        -2.958758
 C        -2.449745        -0.082708        -1.585111
 C        -3.166230        -0.852812        -0.404266
 C        -1.798589        -1.241218        -1.047013
 O        -0.513116        -1.115224        -0.346005
 C         0.023548         0.115809         0.109340
 O         1.231578         0.210856         0.416051
 C        -1.017357         1.178853         0.206751
 C        -1.801367         1.255373        -1.216177
 H        -3.681377        -0.946431        -3.144107
 H        -3.600999         0.724719        -3.179980
 H        -2.151825        -0.352460        -3.518164
 H        -3.166461        -0.285895         0.535666
 H        -4.091460        -1.529756        -0.544671
 H        -1.865700        -2.214076        -1.602234
 H        -1.572512         0.991150         1.099656
 H        -0.481581         2.197574         0.248806
 H        -2.598564         2.112909        -1.229104
 H        -1.032590         1.447035        -1.899292
