19
Iteration:  1439charge 0 multiplicity 1
 C        -2.802356        -0.072452        -3.039672
 C        -2.503159        -0.038264        -1.543880
 C        -3.091715        -1.109019        -0.541280
 C        -1.716366        -1.194344        -1.037973
 O        -0.536579        -1.133009        -0.154982
 C         0.027419         0.101484         0.071408
 O         1.123166         0.101903         0.491278
 C        -0.759955         1.388283        -0.361231
 C        -2.252110         1.305132        -0.722048
 H        -2.800207        -1.111320        -3.369118
 H        -3.804209         0.427252        -3.178113
 H        -1.961134         0.367348        -3.667527
 H        -3.304315        -0.756133         0.441948
 H        -3.737586        -1.912455        -0.695095
 H        -1.473820        -2.016529        -1.687503
 H        -0.402140         2.133945         0.477241
 H        -0.420068         1.920248        -1.288864
 H        -2.968453         1.286636         0.141651
 H        -2.557594         2.174585        -1.304488
