19
Iteration:   878
 C        -2.994296         0.016390        -2.877352
 C        -2.429785        -0.069923        -1.484247
 C        -3.101189        -1.183279        -0.660268
 C        -1.659143        -1.256716        -1.110050
 O        -0.648942        -1.076815        -0.052202
 C         0.046339         0.086702         0.062942
 O         1.190109         0.069136         0.546502
 C        -0.700684         1.411638        -0.366492
 C        -2.146146         1.320940        -0.875851
 H        -3.535782        -1.008112        -3.213141
 H        -3.849302         0.766741        -2.918936
 H        -2.177469         0.230626        -3.597621
 H        -3.224811        -1.066938         0.434305
 H        -3.853046        -1.601046        -1.267566
 H        -1.282897        -2.055960        -1.741919
 H        -0.570137         2.061769         0.503440
 H        -0.241820         1.882780        -1.206314
 H        -2.955840         1.604624        -0.200133
 H        -2.368020         1.983433        -1.801804
