19
Iteration:  1984charge 0 multiplicity 1
 C        -3.228040        -0.017832        -2.878712
 C        -2.530920        -0.069427        -1.486746
 C        -2.933657        -1.279312        -0.618197
 C        -1.605377        -1.200781        -1.221925
 O        -0.590893        -1.127138        -0.119721
 C         0.030217         0.104715         0.130386
 O         1.000769         0.138544         0.873952
 C        -0.505139         1.395064        -0.616180
 C        -2.071029         1.377425        -0.918788
 H        -3.828181        -0.862398        -3.089629
 H        -3.878077         0.884172        -2.865361
 H        -2.668923         0.192988        -3.766676
 H        -2.969908        -1.057496         0.454306
 H        -3.713683        -1.894868        -1.037627
 H        -1.301178        -1.995327        -1.933141
 H        -0.353341         2.228420         0.086226
 H        -0.048595         1.431239        -1.561605
 H        -2.608967         1.666243        -0.057874
 H        -2.283911         2.091454        -1.803242
