19
Iteration:  2881charge 0 multiplicity 1
 C        -2.875915        -0.142265        -2.958712
 C        -2.399264        -0.028107        -1.548011
 C        -3.154000        -0.890562        -0.510537
 C        -1.784229        -1.263425        -0.960197
 O        -0.644397        -1.172028        -0.085618
 C         0.034896         0.123745         0.032815
 O         1.219377         0.161219         0.164450
 C        -1.011864         1.238236         0.163298
 C        -1.862760         1.316080        -1.085800
 H        -2.780658        -1.186195        -3.370406
 H        -3.967829         0.175017        -3.156139
 H        -2.275204         0.470956        -3.631026
 H        -3.297904        -0.461222         0.533074
 H        -3.959074        -1.475454        -0.896469
 H        -1.572045        -2.019166        -1.792980
 H        -1.549092         1.031259         1.028376
 H        -0.460916         2.182073         0.483105
 H        -2.662308         2.130246        -0.865075
 H        -1.257746         1.667011        -2.040083
