19
Iteration:  1849
 C        -2.884509        -0.019339        -2.957168
 C        -2.520455        -0.062971        -1.448552
 C        -3.079288        -1.239246        -0.753801
 C        -1.559744        -1.262279        -1.079050
 O        -0.790385        -0.960355         0.080609
 C         0.014067         0.170962         0.066961
 O         1.181108         0.064212         0.463315
 C        -0.668279         1.377517        -0.547285
 C        -2.179870         1.290792        -0.671325
 H        -3.012397        -1.142568        -3.259797
 H        -3.914542         0.460164        -2.997629
 H        -2.113405         0.463313        -3.532090
 H        -3.277791        -1.302374         0.379687
 H        -3.811058        -1.825097        -1.357555
 H        -1.079267        -1.935041        -1.838098
 H        -0.404656         2.164956         0.206938
 H        -0.077471         1.609663        -1.576876
 H        -2.629325         1.213078         0.392556
 H        -2.624112         2.159238        -1.274322
