19
Iteration:  1837
 C        -3.002042        -0.023197        -2.953462
 C        -2.419954        -0.054541        -1.526175
 C        -3.019833        -1.253848        -0.744808
 C        -1.619949        -1.249086        -1.032128
 O        -0.747194        -0.953224         0.068265
 C         0.023904         0.137295         0.096607
 O         1.155752         0.029492         0.442178
 C        -0.669624         1.441632        -0.434097
 C        -2.193862         1.272481        -0.727646
 H        -3.298609        -1.099901        -3.326929
 H        -3.810571         0.650070        -3.298603
 H        -2.236997         0.184749        -3.680211
 H        -3.283880        -1.202272         0.351441
 H        -3.542139        -1.994684        -1.332455
 H        -1.051240        -2.015451        -1.658037
 H        -0.413304         2.320609         0.218034
 H         0.048490         1.706663        -1.458710
 H        -2.740566         1.420773         0.314026
 H        -2.620880         2.150401        -1.270656
