19
Iteration:  3602
 C        -3.064172        -0.025410        -2.824855
 C        -2.406295        -0.058795        -1.498250
 C        -3.118729        -1.061366        -0.530029
 C        -1.736569        -1.326002        -1.083509
 O        -0.582509        -1.151680        -0.248839
 C         0.000145         0.041665         0.021953
 O         1.071025         0.069525         0.554077
 C        -0.704083         1.377863        -0.168073
 C        -1.883098         1.411798        -1.088216
 H        -3.642535        -0.996125        -2.922268
 H        -3.904915         0.796542        -2.857996
 H        -2.421616         0.186315        -3.724840
 H        -3.228761        -0.831743         0.524129
 H        -4.059840        -1.477307        -0.956581
 H        -1.416302        -2.093914        -1.802805
 H        -1.122814         1.508253         0.809278
 H         0.074281         2.236779        -0.180876
 H        -2.750438         2.142303        -0.624043
 H        -1.609601         2.103815        -1.944929
