19
Iteration:  1525
 C        -3.101035        -0.068905        -2.903125
 C        -2.417775        -0.042225        -1.565006
 C        -3.015914        -1.124284        -0.602912
 C        -1.589461        -1.211461        -1.094385
 O        -0.652224        -1.117710        -0.128895
 C         0.007384         0.068779         0.087364
 O         1.149682         0.148897         0.616190
 C        -0.709736         1.385842        -0.268794
 C        -2.091953         1.267343        -0.982592
 H        -3.352743        -1.098691        -3.205742
 H        -4.155577         0.378272        -2.816593
 H        -2.585945         0.460468        -3.746995
 H        -3.184411        -0.721123         0.389377
 H        -3.653387        -1.847203        -1.094748
 H        -1.374599        -1.912650        -1.903273
 H        -0.643589         1.961543         0.620734
 H        -0.065716         1.810002        -0.962375
 H        -3.005562         1.618388        -0.259220
 H        -2.135160         2.135644        -1.703602
