19
Iteration:  4806charge 0 multiplicity 1
 C        -3.339746        -0.058975        -2.754353
 C        -2.414429        -0.078163        -1.572260
 C        -2.969043        -0.814158        -0.414630
 C        -1.669981        -1.264322        -1.131102
 O        -0.352810        -1.088230        -0.578711
 C        -0.070411         0.079090         0.165012
 O         0.908692        -0.039852         0.894081
 C        -0.734270         1.411149        -0.125323
 C        -1.829237         1.199640        -1.311584
 H        -3.918114        -1.019341        -2.924805
 H        -4.170878         0.676955        -2.635618
 H        -2.913914         0.278956        -3.743480
 H        -2.761170        -0.557023         0.632539
 H        -3.734460        -1.589739        -0.420712
 H        -1.660721        -2.119672        -1.809683
 H        -1.101334         1.867818         0.754500
 H         0.118509         1.972726        -0.463766
 H        -2.592296         2.047133        -1.321544
 H        -1.055325         1.381642        -2.227819
