19
Iteration:  1405
 C        -2.817142         0.096722        -2.889184
 C        -2.520254        -0.081657        -1.463369
 C        -3.147095        -1.286728        -0.618049
 C        -1.697518        -1.308271        -1.045721
 O        -0.670269        -1.093615        -0.099168
 C         0.055998         0.130405         0.016425
 O         1.091277         0.195041         0.605701
 C        -0.629223         1.395933        -0.635030
 C        -2.142689         1.261572        -0.700685
 H        -2.689669        -0.859284        -3.434833
 H        -3.924437         0.338827        -3.097721
 H        -2.275808         0.966229        -3.279350
 H        -3.314180        -1.059001         0.356283
 H        -3.683625        -1.980938        -1.084975
 H        -1.476017        -2.041613        -1.793062
 H        -0.316223         2.194150         0.103903
 H        -0.207393         1.548645        -1.639282
 H        -2.774320         1.260397         0.245375
 H        -2.526586         2.102058        -1.290722
