19
Iteration:  3992
 C        -3.050254         0.024609        -2.896132
 C        -2.538671        -0.004718        -1.485494
 C        -3.105647        -0.948039        -0.585457
 C        -1.734116        -1.237176        -1.107988
 O        -0.523310        -1.188660        -0.215293
 C         0.095298         0.011257         0.040361
 O         1.127058         0.107932         0.661496
 C        -0.615323         1.276025        -0.308667
 C        -2.155339         1.304314        -0.937881
 H        -3.099221        -1.062301        -3.265990
 H        -4.126750         0.319095        -2.909305
 H        -2.354196         0.511414        -3.615578
 H        -3.230838        -0.692303         0.514962
 H        -3.887664        -1.682957        -0.944964
 H        -1.641321        -2.064368        -1.789052
 H        -0.498846         2.045042         0.421130
 H         0.100289         1.622336        -1.060071
 H        -2.776471         1.686134        -0.223980
 H        -2.117683         2.077543        -1.731536
