19
Iteration:  3425
 C        -3.183109         0.222241        -2.786681
 C        -2.495883         0.000391        -1.391728
 C        -2.998550        -1.261029        -0.592263
 C        -1.609564        -1.198886        -1.254121
 O        -0.632054        -1.139598        -0.204764
 C         0.079780         0.127336        -0.028437
 O         0.762201         0.169869         1.001931
 C        -0.408336         1.205604        -0.877686
 C        -1.956552         1.201110        -0.754594
 H        -3.430263        -0.748053        -3.280551
 H        -4.055877         0.823969        -2.566991
 H        -2.521907         0.879780        -3.400448
 H        -2.996116        -1.154242         0.464346
 H        -3.599518        -1.990226        -1.070721
 H        -1.380125        -1.761656        -2.133471
 H        -0.035665         2.148954        -0.549555
 H        -0.064012         1.105798        -1.979518
 H        -2.098774         1.075674         0.406534
 H        -2.270232         2.160879        -1.247916
