19
Iteration:  2610charge 0 multiplicity 1
 C        -3.436707        -0.157828        -2.587093
 C        -2.472604        -0.041293        -1.474358
 C        -2.649236        -0.908848        -0.269111
 C        -1.538005        -1.231414        -1.257850
 O        -0.197828        -1.034816        -0.754486
 C        -0.107499         0.148071         0.154128
 O         0.556147        -0.144257         1.124052
 C        -0.768466         1.424100        -0.264469
 C        -1.766005         1.313256        -1.543559
 H        -4.145625        -1.014290        -2.429130
 H        -4.089405         0.768293        -2.629266
 H        -3.073647        -0.142191        -3.625902
 H        -2.460697        -0.684832         0.723553
 H        -3.498228        -1.567576        -0.296669
 H        -1.674679        -2.055497        -1.867885
 H        -1.413998         1.785307         0.639542
 H         0.011871         2.207064        -0.465025
 H        -2.479032         2.085561        -1.437445
 H        -1.269178         1.511619        -2.463788
