19
Iteration:   644
 C        -3.010553        -0.067539        -2.958579
 C        -2.480630        -0.032246        -1.538125
 C        -3.172273        -0.987803        -0.405907
 C        -1.774016        -1.279435        -1.029696
 O        -0.495262        -1.172187        -0.365599
 C         0.027467         0.041734         0.031168
 O         1.092231         0.091251         0.634224
 C        -0.684129         1.413868        -0.203018
 C        -1.982508         1.323350        -0.982596
 H        -3.222646        -1.118360        -3.233198
 H        -4.021967         0.377104        -3.108461
 H        -2.209051         0.258152        -3.703836
 H        -3.195625        -0.444736         0.613055
 H        -3.999243        -1.671603        -0.803545
 H        -1.760953        -2.086311        -1.665257
 H        -0.811713         1.855258         0.838969
 H         0.110603         2.083039        -0.790418
 H        -2.738083         1.675362        -0.346685
 H        -2.003060         2.005929        -1.904021
