19
Iteration:  3942charge 0 multiplicity 1
 C        -3.109209         0.096722        -2.788319
 C        -2.522291        -0.024623        -1.420412
 C        -2.999646        -1.104978        -0.559516
 C        -1.659457        -1.227804        -1.187699
 O        -0.613855        -1.070254        -0.298062
 C         0.003145         0.046600         0.036339
 O         0.898726         0.129430         0.884002
 C        -0.485570         1.222157        -0.769421
 C        -2.013406         1.219728        -0.750899
 H        -2.903085        -0.777069        -3.351561
 H        -4.122575         0.340191        -2.945047
 H        -2.367922         0.737459        -3.231453
 H        -3.052917        -0.893105         0.493831
 H        -3.909063        -1.459958        -0.952697
 H        -1.321731        -1.883164        -2.001483
 H         0.039299         2.137073        -0.342142
 H        -0.097447         1.220857        -1.888086
 H        -2.359525         1.259847         0.377088
 H        -2.260856         2.221733        -1.090265
