19
Iteration:  2209charge 0 multiplicity 1
 C        -3.225166        -0.204174        -2.888578
 C        -2.454799        -0.046822        -1.585162
 C        -3.003589        -0.785559        -0.384101
 C        -1.734911        -1.195292        -1.103677
 O        -0.331839        -1.073722        -0.525294
 C         0.039863         0.067290         0.049228
 O         1.069108         0.086039         0.735771
 C        -0.999995         1.217198         0.049154
 C        -1.834613         1.298763        -1.216987
 H        -3.425769        -1.239307        -3.285370
 H        -4.186014         0.231758        -2.848110
 H        -2.694078         0.396600        -3.695703
 H        -2.817596        -0.297305         0.560345
 H        -3.691897        -1.600682        -0.420917
 H        -1.750867        -2.207356        -1.521684
 H        -1.705366         1.170217         0.933134
 H        -0.402052         2.144937         0.295060
 H        -2.570917         2.160691        -1.115950
 H        -1.206825         1.415295        -2.160215
