19
Iteration:   473
 C        -3.145129        -0.167789        -2.937507
 C        -2.552516        -0.043496        -1.587380
 C        -3.065267        -0.977168        -0.478840
 C        -1.726996        -1.213719        -1.168755
 O        -0.581360        -1.091305        -0.207851
 C         0.081905         0.109284         0.063470
 O         1.186944         0.029219         0.551078
 C        -0.785484         1.355922         0.003253
 C        -1.883330         1.345352        -1.108989
 H        -3.651557        -1.197266        -2.964414
 H        -3.880156         0.613216        -3.207049
 H        -2.407909         0.070980        -3.738570
 H        -3.006461        -0.538248         0.525941
 H        -3.972937        -1.624762        -0.665701
 H        -1.620383        -2.147947        -1.581465
 H        -1.171021         1.432032         0.946527
 H        -0.218690         2.185889        -0.131672
 H        -2.696419         2.150364        -0.965831
 H        -1.360855         1.732616        -1.980176
