19
Iteration:  3389
 C        -2.959839         0.071489        -2.910226
 C        -2.535028        -0.001086        -1.429081
 C        -3.085479        -1.135251        -0.555194
 C        -1.688218        -1.210000        -1.110745
 O        -0.562737        -1.196775        -0.278717
 C        -0.000768         0.090908         0.100286
 O         1.029852         0.061174         0.757610
 C        -0.607892         1.326862        -0.571061
 C        -2.064846         1.371160        -0.787768
 H        -3.024896        -0.908863        -3.378470
 H        -4.003879         0.383756        -2.962636
 H        -2.362934         0.708126        -3.660208
 H        -3.171614        -1.034730         0.530526
 H        -3.798773        -1.891930        -0.958449
 H        -1.480325        -1.809386        -2.002540
 H        -0.121397         2.334562        -0.248513
 H        -0.294835         1.107046        -1.585014
 H        -2.720448         1.467772         0.190877
 H        -2.414977         2.227949        -1.257073
