19
Iteration:  1881charge 0 multiplicity 1
 C        -2.700341         0.185377        -2.962106
 C        -2.587367        -0.064885        -1.378283
 C        -3.149080        -1.270193        -0.658644
 C        -1.650059        -1.286422        -0.967601
 O        -0.676004        -1.047735         0.032867
 C         0.004283         0.140146        -0.014366
 O         1.087280         0.199705         0.526850
 C        -0.649110         1.231852        -0.755906
 C        -2.190307         1.213130        -0.644860
 H        -2.329620        -0.689843        -3.581024
 H        -3.754149         0.319014        -3.217852
 H        -2.192268         1.063201        -3.282558
 H        -3.566372        -1.175011         0.386789
 H        -3.729005        -2.024152        -1.220448
 H        -1.397538        -2.104873        -1.682974
 H        -0.247436         2.156373        -0.287859
 H        -0.291953         1.539634        -1.860040
 H        -2.524417         1.169713         0.440615
 H        -2.714338         2.115791        -0.903264
