19
Iteration:  4581
 C        -2.871915        -0.028730        -2.926840
 C        -2.432833        -0.052753        -1.506515
 C        -3.137197        -0.830033        -0.403260
 C        -1.763895        -1.324709        -0.860540
 O        -0.558559        -1.139960        -0.262989
 C         0.012083         0.065505         0.046449
 O         1.185622         0.064805         0.213956
 C        -1.059488         1.187053         0.106991
 C        -1.829251         1.373063        -1.171205
 H        -3.692962        -0.772808        -3.152295
 H        -3.219021         0.937290        -3.387979
 H        -2.106984        -0.430333        -3.540480
 H        -3.373538        -0.280434         0.513526
 H        -3.877237        -1.298408        -1.035001
 H        -1.820061        -2.123774        -1.534605
 H        -1.800949         1.057781         0.908227
 H        -0.599791         2.129227         0.429335
 H        -2.637701         1.948228        -0.775040
 H        -1.131403         1.943810        -1.917572
