19
Iteration:  1772charge 0 multiplicity 1
 C        -2.858676        -0.035734        -2.945380
 C        -2.436608        -0.070664        -1.435238
 C        -3.162239        -1.144157        -0.560613
 C        -1.694535        -1.211027        -1.002470
 O        -0.477341        -1.122973        -0.228840
 C        -0.073305         0.112293         0.099650
 O         1.086649         0.143171         0.536985
 C        -0.694471         1.394126        -0.420626
 C        -2.193259         1.268332        -0.840046
 H        -3.084732        -1.115915        -3.363160
 H        -3.672187         0.734311        -3.065149
 H        -2.026252         0.451858        -3.482907
 H        -3.243234        -0.769628         0.461671
 H        -3.974960        -1.823765        -0.801787
 H        -1.489903        -1.918830        -1.859358
 H        -0.720111         1.999873         0.466327
 H        -0.122327         1.657880        -1.222344
 H        -2.922600         1.310358         0.031401
 H        -2.356926         1.979205        -1.681281
