19
Iteration:  2067charge 0 multiplicity 1
 C        -3.213201        -0.206208        -2.793558
 C        -2.547854        -0.038327        -1.482173
 C        -2.818825        -0.914203        -0.315234
 C        -1.610399        -1.173105        -1.186406
 O        -0.333556        -1.087093        -0.626442
 C        -0.049170         0.050908         0.066172
 O         0.706014        -0.021356         0.962587
 C        -0.625493         1.367711        -0.280491
 C        -1.993910         1.365859        -1.152807
 H        -3.048987        -1.395227        -3.101876
 H        -4.310658        -0.086818        -2.937054
 H        -2.529744         0.380054        -3.629925
 H        -2.608191        -0.252366         0.533599
 H        -3.545811        -1.770624        -0.221586
 H        -1.766398        -1.890174        -1.902802
 H        -0.407755         2.119372         0.465850
 H         0.025511         1.850056        -1.069018
 H        -2.817398         1.945963        -0.533768
 H        -1.873778         1.985258        -2.090500
