19
Iteration:  1227
 C        -3.288654        -0.101389        -2.800054
 C        -2.495844        -0.010765        -1.535597
 C        -2.885412        -1.075648        -0.464793
 C        -1.605484        -1.229918        -1.200669
 O        -0.412589        -1.080824        -0.435548
 C        -0.012183         0.043366         0.110709
 O         0.864078         0.125862         0.913951
 C        -0.656924         1.293440        -0.319567
 C        -1.931839         1.336179        -1.106811
 H        -3.732730        -1.150537        -3.109449
 H        -4.271734         0.409668        -2.728659
 H        -2.804812         0.341575        -3.642551
 H        -2.806579        -0.716006         0.655084
 H        -3.806113        -1.671896        -0.757825
 H        -1.392011        -1.980196        -1.973586
 H        -0.735714         1.967323         0.476889
 H         0.125280         1.860609        -1.018841
 H        -2.763294         1.885286        -0.564526
 H        -1.741567         1.855225        -2.028784
