19
Iteration:  2215
 C        -3.164867        -0.194731        -2.903325
 C        -2.506883        -0.048801        -1.578694
 C        -3.025077        -0.798248        -0.390393
 C        -1.686211        -1.220831        -1.057530
 O        -0.347099        -1.109521        -0.512454
 C         0.040027         0.096144         0.055861
 O         1.049911         0.071177         0.690101
 C        -0.958642         1.235717         0.022758
 C        -1.859909         1.340094        -1.203955
 H        -3.302294        -1.215468        -3.177949
 H        -4.222346         0.266882        -2.894047
 H        -2.707756         0.396618        -3.665430
 H        -2.960291        -0.342142         0.633618
 H        -3.762834        -1.628508        -0.455631
 H        -1.712988        -2.185576        -1.517624
 H        -1.523690         1.004154         0.930225
 H        -0.517282         2.280577         0.275495
 H        -2.622823         2.076628        -1.173651
 H        -1.187597         1.635400        -1.989347
