19
Iteration:  1799charge 0 multiplicity 1
 C        -2.993737         0.058900        -2.963012
 C        -2.520814        -0.063226        -1.508476
 C        -3.041706        -1.210462        -0.643942
 C        -1.671581        -1.329800        -1.036487
 O        -0.661004        -1.077806        -0.018877
 C         0.099860         0.109424         0.024033
 O         1.167182         0.216463         0.518148
 C        -0.684162         1.338298        -0.349312
 C        -2.178684         1.262997        -0.880695
 H        -3.442944        -0.806220        -3.303930
 H        -3.469306         1.005651        -3.228199
 H        -1.958394         0.148607        -3.363068
 H        -3.272635        -1.011172         0.427917
 H        -3.809863        -1.888663        -1.083534
 H        -1.495732        -2.203794        -1.604068
 H        -0.737890         1.914191         0.606656
 H        -0.119432         1.967401        -1.191140
 H        -2.878338         1.245773        -0.114142
 H        -2.248637         2.005335        -1.680128
