19
Iteration:   808
 C        -3.002450         0.192130        -2.792375
 C        -2.492404        -0.057106        -1.399973
 C        -3.128154        -1.254058        -0.557387
 C        -1.637896        -1.200781        -1.097972
 O        -0.492917        -1.145158        -0.260581
 C         0.045986         0.081356        -0.051640
 O         0.744562         0.244993         0.888407
 C        -0.480444         1.245618        -0.949698
 C        -2.004588         1.203634        -0.625798
 H        -2.829263        -0.665861        -3.493738
 H        -4.080893         0.415999        -2.895132
 H        -2.393796         1.039885        -3.260726
 H        -3.333387        -1.014069         0.517703
 H        -3.741294        -2.021153        -1.129415
 H        -1.500793        -1.955777        -1.868857
 H         0.003367         2.139218        -0.572392
 H        -0.274834         1.142712        -1.951561
 H        -2.110477         1.223282         0.477616
 H        -2.597615         2.156908        -1.004115
