19
Iteration:   417
 C        -3.200575         0.023428        -2.839715
 C        -2.505390        -0.118728        -1.525835
 C        -2.985459        -1.018263        -0.432717
 C        -1.662251        -1.316816        -1.085921
 O        -0.513912        -1.125736        -0.337594
 C         0.020798         0.108777         0.032560
 O         0.972171         0.081010         0.762584
 C        -0.631678         1.422311        -0.253025
 C        -1.913934         1.242427        -1.176926
 H        -3.814138        -0.880563        -3.254964
 H        -3.927670         0.861011        -2.638485
 H        -2.517177         0.041984        -3.692802
 H        -3.049026        -0.714250         0.653490
 H        -4.024383        -1.421874        -0.755816
 H        -1.548247        -2.037203        -1.812674
 H        -0.835251         1.816753         0.666999
 H         0.068266         2.044113        -0.672285
 H        -2.812244         1.755500        -0.673689
 H        -1.551271         1.713315        -2.083642
