19
Iteration:  2160
 C        -3.408581        -0.043463        -2.654243
 C        -2.371626        -0.050910        -1.533427
 C        -2.813857        -1.017777        -0.329483
 C        -1.610357        -1.248310        -1.213511
 O        -0.340519        -1.050518        -0.612172
 C        -0.026691         0.146868         0.120453
 O         0.842709         0.057207         0.915125
 C        -1.005173         1.297552        -0.093166
 C        -1.666136         1.229495        -1.461281
 H        -4.082315        -0.860354        -2.749131
 H        -4.174343         0.797943        -2.517875
 H        -3.079620         0.062312        -3.654701
 H        -2.680058        -0.665093         0.668556
 H        -3.775262        -1.516201        -0.652927
 H        -1.405301        -2.059793        -1.969857
 H        -1.572303         1.288254         0.858318
 H        -0.419797         2.386239         0.044709
 H        -2.359630         1.987436        -1.611469
 H        -0.874662         1.295615        -2.135614
