19
Iteration:  2899
 C        -3.005543        -0.141049        -3.040022
 C        -2.487567        -0.010078        -1.547922
 C        -3.044347        -0.906759        -0.400820
 C        -1.743287        -1.252698        -1.037604
 O        -0.533035        -1.065914        -0.209998
 C         0.014441         0.070877         0.029018
 O         1.156315         0.077203         0.367815
 C        -0.972688         1.251998         0.150377
 C        -1.866078         1.347968        -1.168177
 H        -3.021163        -1.114773        -3.472846
 H        -4.008895         0.213734        -3.147741
 H        -2.250446         0.376058        -3.661183
 H        -3.011022        -0.453058         0.603144
 H        -3.953406        -1.553377        -0.478148
 H        -1.664498        -2.219718        -1.375308
 H        -1.661602         0.881314         1.026887
 H        -0.538996         2.244006         0.277653
 H        -2.630084         2.064263        -1.104268
 H        -1.190523         1.647171        -1.865918
