19
Iteration:  1561charge 0 multiplicity 1
 C        -3.030183        -0.129414        -2.934361
 C        -2.519226        -0.034889        -1.504131
 C        -3.051128        -1.111663        -0.506156
 C        -1.692941        -1.185483        -1.103351
 O        -0.519266        -1.137184        -0.313643
 C         0.069062         0.112922         0.049075
 O         1.053144         0.098010         0.792291
 C        -0.618378         1.422482        -0.403685
 C        -2.135080         1.289228        -0.904186
 H        -2.737486        -1.081837        -3.424911
 H        -4.153711         0.037355        -2.928831
 H        -2.554233         0.760896        -3.567291
 H        -3.441907        -0.688269         0.453441
 H        -3.842771        -1.870450        -0.884636
 H        -1.562240        -1.884475        -1.940162
 H        -0.615715         2.276730         0.383491
 H         0.106558         1.746873        -1.244814
 H        -2.897568         1.483751         0.031836
 H        -2.328101         2.071227        -1.693242
