19
Iteration:  4620
 C        -3.188372        -0.071276        -2.984345
 C        -2.556479         0.035820        -1.549561
 C        -3.094003        -0.883556        -0.471239
 C        -1.722705        -1.232338        -1.103741
 O        -0.561166        -1.178650        -0.247156
 C         0.060108         0.082190         0.196008
 O         1.207992         0.106015         0.492791
 C        -0.849863         1.214144         0.041556
 C        -1.785046         1.258966        -1.182847
 H        -3.498734        -1.101421        -3.155546
 H        -4.025799         0.612787        -3.114835
 H        -2.409551         0.292233        -3.714150
 H        -3.279113        -0.496531         0.519213
 H        -4.006203        -1.466885        -0.686764
 H        -1.540088        -2.120488        -1.742019
 H        -1.303919         1.414139         1.037673
 H        -0.125742         2.073457        -0.167461
 H        -2.459781         2.160593        -1.039488
 H        -1.282600         1.529280        -2.063368
