19
Iteration:  4463charge 0 multiplicity 1
 C        -3.026720        -0.032435        -2.996111
 C        -2.467159         0.005545        -1.523687
 C        -3.086401        -0.861444        -0.458089
 C        -1.736916        -1.275364        -1.069090
 O        -0.627994        -1.156155        -0.167296
 C        -0.021920         0.098602         0.051399
 O         1.173866         0.013171         0.349790
 C        -0.851384         1.310309         0.079651
 C        -1.892073         1.261270        -1.088655
 H        -2.925644        -1.103721        -3.324119
 H        -4.076203         0.340357        -3.062374
 H        -2.449669         0.601576        -3.754804
 H        -2.832066        -0.544906         0.551807
 H        -3.816517        -1.654597        -0.718740
 H        -1.586739        -2.204343        -1.560295
 H        -1.191400         1.541945         1.117592
 H        -0.210428         2.123909        -0.107246
 H        -2.677417         2.046355        -0.953840
 H        -1.203886         1.645465        -1.903345
