19
Iteration:   652
 C        -3.051347        -0.090842        -2.961871
 C        -2.506736        -0.061088        -1.504687
 C        -3.136993        -0.975224        -0.432843
 C        -1.786624        -1.231857        -1.019075
 O        -0.499254        -1.162293        -0.385544
 C         0.045773         0.059129         0.000814
 O         1.045214         0.117886         0.667465
 C        -0.601289         1.350408        -0.205863
 C        -1.998366         1.301187        -0.970769
 H        -3.010131        -1.093498        -3.354855
 H        -4.008737         0.470181        -3.186311
 H        -2.156255         0.372414        -3.640505
 H        -3.218205        -0.416058         0.538849
 H        -4.074168        -1.616988        -0.582104
 H        -1.616113        -2.061636        -1.781602
 H        -0.641221         1.874999         0.741349
 H        -0.016548         1.877322        -0.773106
 H        -2.882720         1.686064        -0.340879
 H        -1.907211         1.978738        -1.845441
