19
Iteration:  3852
 C        -3.185709         0.221831        -2.800249
 C        -2.527919         0.025538        -1.428457
 C        -3.048056        -1.134385        -0.626567
 C        -1.601811        -1.200843        -1.118988
 O        -0.517726        -1.176763        -0.209495
 C         0.043504         0.063379        -0.023452
 O         0.777628         0.161059         0.924433
 C        -0.409234         1.212201        -0.864097
 C        -1.952363         1.202989        -0.715144
 H        -3.359632        -0.750420        -3.258970
 H        -4.097132         0.675531        -2.806407
 H        -2.469823         0.631516        -3.510646
 H        -3.170572        -1.164733         0.487757
 H        -3.734279        -1.965538        -1.042578
 H        -1.317892        -1.949147        -1.839525
 H        -0.017431         2.151730        -0.515206
 H        -0.207440         1.110072        -1.985305
 H        -2.401707         1.297755         0.283555
 H        -2.432915         2.114492        -1.159287
