19
Iteration:   226charge 0 multiplicity 1
 C        -3.176608        -0.184178        -2.900885
 C        -2.544621        -0.027389        -1.507622
 C        -3.079275        -0.840341        -0.387073
 C        -1.772596        -1.206170        -1.065738
 O        -0.396544        -1.090793        -0.485294
 C         0.085246         0.084202         0.009327
 O         1.065335         0.030633         0.721902
 C        -0.834644         1.285194        -0.037073
 C        -1.848211         1.306443        -1.197760
 H        -3.525256        -1.181703        -3.188157
 H        -4.130702         0.433734        -2.957681
 H        -2.418956         0.244671        -3.647713
 H        -2.873269        -0.611423         0.651813
 H        -3.912387        -1.534958        -0.624708
 H        -1.694234        -2.053792        -1.664272
 H        -1.301160         1.252947         1.019008
 H        -0.109518         2.209488         0.069767
 H        -2.617577         2.092168        -1.089225
 H        -1.287837         1.683448        -2.163169
