19
Iteration:   122charge 0 multiplicity 1
 C        -2.914568        -0.055712        -2.965209
 C        -2.443233        -0.079120        -1.505316
 C        -3.199527        -1.101105        -0.587768
 C        -1.739091        -1.222841        -0.941021
 O        -0.713324        -1.021515        -0.039222
 C        -0.016423         0.106322         0.130505
 O         1.217027         0.055568         0.058154
 C        -0.841354         1.384699         0.182087
 C        -1.828151         1.296446        -1.087897
 H        -3.578987        -0.937758        -3.208915
 H        -3.496976         0.861902        -3.084261
 H        -2.070970        -0.048521        -3.712480
 H        -3.445185        -0.924590         0.496896
 H        -3.793540        -1.830785        -1.127699
 H        -1.560254        -2.179908        -1.470456
 H        -1.361305         1.480022         1.049117
 H        -0.161962         2.113350         0.101248
 H        -2.711695         1.964439        -0.922164
 H        -1.314026         1.602351        -1.980627
