19
Iteration:   625charge 0 multiplicity 1
 C        -3.028300        -0.079763        -2.897211
 C        -2.442657        -0.029331        -1.516315
 C        -3.077608        -0.944120        -0.504296
 C        -1.688849        -1.249214        -0.994079
 O        -0.543153        -1.127214        -0.253264
 C         0.018731         0.071972         0.085984
 O         1.155721        -0.026445         0.521049
 C        -0.770164         1.330369        -0.149056
 C        -2.101920         1.392709        -1.096624
 H        -3.468926        -1.018025        -3.312179
 H        -3.761543         0.709788        -2.949973
 H        -2.222134         0.003984        -3.545893
 H        -3.108467        -0.566937         0.515713
 H        -3.843253        -1.563903        -0.858512
 H        -1.516672        -2.065440        -1.678845
 H        -1.067236         1.732969         0.832493
 H        -0.060147         2.198669        -0.651423
 H        -3.001893         1.764834        -0.598043
 H        -1.880738         1.930727        -2.023995
