19
Iteration:  1165
 C        -3.360209        -0.144901        -2.789613
 C        -2.502744        -0.053511        -1.541835
 C        -2.903749        -0.930317        -0.371693
 C        -1.681128        -1.272539        -1.175849
 O        -0.331707        -1.055937        -0.647072
 C        -0.043907         0.082943         0.131051
 O         0.951147         0.121200         0.850537
 C        -0.928529         1.361567        -0.016695
 C        -1.677477         1.222166        -1.292708
 H        -3.893242        -1.096252        -2.888686
 H        -3.959607         0.770796        -2.733107
 H        -2.723310        -0.153195        -3.693383
 H        -2.855313        -0.495185         0.618338
 H        -3.789990        -1.524263        -0.514188
 H        -1.658854        -2.226980        -1.831214
 H        -1.547732         1.370558         0.980851
 H        -0.212857         2.207267         0.119881
 H        -2.431326         2.014652        -1.370028
 H        -0.884748         1.491717        -2.108002
