19
Iteration:  4539
 C        -2.820120        -0.140683        -3.104958
 C        -2.452195         0.022289        -1.541609
 C        -3.190661        -0.745029        -0.434512
 C        -1.905954        -1.263688        -0.957185
 O        -0.597176        -1.163038        -0.178568
 C        -0.051403         0.009902         0.103402
 O         1.165815         0.257652         0.014603
 C        -0.958111         1.139409         0.316919
 C        -1.738103         1.252694        -1.002114
 H        -3.391866        -1.053480        -3.437069
 H        -3.395636         0.747353        -3.476050
 H        -1.759399        -0.298781        -3.481440
 H        -2.990247        -0.381153         0.601021
 H        -4.013055        -1.392848        -0.732727
 H        -1.821728        -2.241888        -1.377837
 H        -1.643499         0.942328         1.060536
 H        -0.410333         1.969026         0.574194
 H        -2.551553         1.939307        -0.685558
 H        -0.949202         1.550327        -1.842996
