19
Iteration:  3201
 C        -2.869211        -0.123937        -3.112016
 C        -2.455254         0.002648        -1.512708
 C        -3.079785        -0.756578        -0.389540
 C        -1.757907        -1.263256        -0.910948
 O        -0.530303        -1.184037        -0.254388
 C        -0.079412         0.071738         0.113287
 O         1.114959         0.245592         0.120691
 C        -1.083024         1.139040         0.290178
 C        -1.734448         1.274768        -1.117406
 H        -3.237234        -1.134754        -3.188533
 H        -3.760092         0.362744        -3.369322
 H        -2.011050        -0.172057        -3.724589
 H        -3.140257        -0.344098         0.641495
 H        -3.937435        -1.478099        -0.705954
 H        -1.918864        -2.264440        -1.483456
 H        -1.873618         0.907679         0.985427
 H        -0.468862         1.997241         0.668482
 H        -2.509480         2.181133        -1.017000
 H        -1.009131         1.421088        -1.857394
