19
Iteration:  2646charge 0 multiplicity 1
 C        -3.439728        -0.119036        -2.767807
 C        -2.526567        -0.013544        -1.532281
 C        -2.778616        -0.855469        -0.327287
 C        -1.623975        -1.301211        -1.173406
 O        -0.265084        -1.037362        -0.717532
 C        -0.063537         0.068833         0.168621
 O         0.834302         0.060808         0.997713
 C        -0.902837         1.324615        -0.096922
 C        -1.703717         1.232453        -1.417694
 H        -4.170906        -0.956899        -2.780215
 H        -4.028304         0.763748        -2.747314
 H        -2.684966        -0.244058        -3.587372
 H        -2.485137        -0.520904         0.670678
 H        -3.600795        -1.552008        -0.444825
 H        -1.586838        -2.302795        -1.705266
 H        -1.462734         1.446804         0.774971
 H        -0.176533         2.178957        -0.007482
 H        -2.460869         2.101016        -1.280035
 H        -1.202953         1.260231        -2.464740
