19
Iteration:  1127charge 0 multiplicity 1
 C        -3.217880        -0.198909        -2.853111
 C        -2.473183        -0.075523        -1.563799
 C        -2.896706        -0.773992        -0.320111
 C        -1.692128        -1.186295        -1.021542
 O        -0.349477        -1.044834        -0.628607
 C        -0.071534         0.110653         0.167397
 O         1.036378         0.050085         0.648509
 C        -1.020209         1.202074         0.096526
 C        -1.755666         1.249413        -1.299545
 H        -3.431155        -1.233299        -3.190552
 H        -4.162854         0.315231        -3.034499
 H        -2.544075         0.317488        -3.530191
 H        -3.047128        -0.230488         0.581746
 H        -3.770755        -1.423559        -0.540533
 H        -1.801538        -2.016691        -1.658137
 H        -1.752163         1.006491         0.800986
 H        -0.615964         2.306284         0.314760
 H        -2.448913         2.098938        -1.323157
 H        -1.100980         1.432374        -2.062011
