19
Iteration:  2912
 C        -3.059537        -0.124042        -2.977876
 C        -2.475057        -0.061627        -1.604124
 C        -3.026775        -0.886250        -0.350675
 C        -1.734737        -1.202309        -1.017871
 O        -0.505777        -1.137366        -0.371207
 C        -0.009648         0.111501         0.163452
 O         1.177265         0.100235         0.496637
 C        -0.998636         1.235975         0.058222
 C        -1.855562         1.283793        -1.203529
 H        -3.205107        -1.170941        -3.231407
 H        -4.008882         0.475118        -3.066205
 H        -2.401439         0.375014        -3.684229
 H        -2.999766        -0.299688         0.619548
 H        -3.857697        -1.535189        -0.562784
 H        -1.717531        -1.970814        -1.807971
 H        -1.632752         1.250327         0.963214
 H        -0.324625         2.150460         0.205190
 H        -2.557483         1.975361        -1.042592
 H        -1.336575         1.642917        -2.062448
