19
Iteration:  4431
 C        -3.161401        -0.062921        -2.874707
 C        -2.472111         0.050409        -1.482665
 C        -3.155787        -0.922816        -0.464930
 C        -1.790411        -1.207053        -1.071927
 O        -0.448033        -1.149383        -0.404906
 C         0.133137         0.050443         0.078289
 O         1.153191         0.020397         0.675460
 C        -0.837747         1.250910        -0.080347
 C        -1.854488         1.390787        -1.231061
 H        -3.540286        -1.112473        -2.878137
 H        -4.112222         0.484187        -2.988867
 H        -2.528695         0.100086        -3.817151
 H        -3.193090        -0.802057         0.632970
 H        -3.844119        -1.758768        -0.798663
 H        -1.862367        -2.068542        -1.716380
 H        -1.446983         1.086330         0.957832
 H        -0.275684         2.159094         0.046191
 H        -2.599237         2.168528        -0.919605
 H        -1.425587         1.797803        -2.168489
