19
Iteration:  3248charge 0 multiplicity 1
 C        -2.749383        -0.046425        -3.051966
 C        -2.428096        -0.025555        -1.568523
 C        -3.172085        -0.904020        -0.550728
 C        -1.807444        -1.319393        -0.872527
 O        -0.660226        -1.154066         0.077601
 C        -0.032537         0.055429         0.050602
 O         1.173779         0.207587        -0.137108
 C        -0.984870         1.210828         0.258863
 C        -1.861741         1.311823        -1.005257
 H        -2.679862        -1.000837        -3.576420
 H        -3.723076         0.294615        -3.294947
 H        -1.783907         0.441263        -3.449024
 H        -3.382956        -0.484948         0.431251
 H        -3.861460        -1.537832        -1.041989
 H        -1.658591        -2.252483        -1.349248
 H        -1.515520         0.920389         1.211845
 H        -0.422286         2.084011         0.423046
 H        -2.827290         1.958607        -0.690790
 H        -1.155118         1.916828        -1.696040
