19
Iteration:  1530
 C        -3.126637        -0.117458        -2.916530
 C        -2.412553        -0.022482        -1.565453
 C        -3.002276        -1.117584        -0.606535
 C        -1.633811        -1.232869        -1.132226
 O        -0.617735        -1.101946        -0.131215
 C         0.021745         0.078299         0.086293
 O         1.122311         0.161703         0.626563
 C        -0.690633         1.351302        -0.290730
 C        -2.088771         1.306469        -0.922560
 H        -3.265335        -1.129013        -3.344667
 H        -4.118967         0.315502        -2.769332
 H        -2.552317         0.480367        -3.696565
 H        -3.334994        -0.788088         0.404985
 H        -3.805264        -1.751182        -1.098658
 H        -1.428374        -2.013592        -1.878868
 H        -0.719296         1.982240         0.704764
 H         0.168922         1.821658        -0.981749
 H        -2.900661         1.644751        -0.290546
 H        -2.141261         2.119023        -1.641665
