19
Iteration:  4084charge 0 multiplicity 1
 C        -2.963479        -0.007411        -2.972577
 C        -2.451260        -0.022253        -1.546711
 C        -3.161387        -0.945721        -0.512333
 C        -1.752722        -1.325557        -0.968158
 O        -0.541545        -1.207925        -0.150800
 C        -0.011883         0.030504         0.008700
 O         1.181965         0.112859         0.279652
 C        -0.846682         1.333018         0.113332
 C        -1.942768         1.349185        -1.030266
 H        -3.490339        -0.935536        -3.194431
 H        -3.832384         0.695512        -2.971923
 H        -2.224891         0.164493        -3.868718
 H        -3.320647        -0.621302         0.483251
 H        -4.070983        -1.371336        -0.866393
 H        -1.452676        -2.053770        -1.762991
 H        -1.199385         1.501718         1.148317
 H        -0.137668         2.111798        -0.011626
 H        -2.797153         2.009976        -1.028915
 H        -1.377329         1.658534        -1.941196
