19
Iteration:  2346charge 0 multiplicity 1
 C        -2.704477        -0.093817        -2.945984
 C        -2.374942        -0.031892        -1.463036
 C        -3.170607        -0.900054        -0.524353
 C        -1.698523        -1.292927        -0.962709
 O        -0.638989        -1.177295        -0.035163
 C        -0.054126         0.160977         0.011232
 O         1.145751         0.124472        -0.041798
 C        -1.035931         1.264429         0.215709
 C        -1.943309         1.330823        -1.031932
 H        -2.853044        -1.131969        -3.234902
 H        -3.733687         0.397838        -3.181836
 H        -1.848467         0.316820        -3.472955
 H        -3.188811        -0.776795         0.585844
 H        -3.986114        -1.571149        -0.907256
 H        -1.646455        -2.117827        -1.640070
 H        -1.634228         1.134322         1.106631
 H        -0.530378         2.167192         0.230339
 H        -2.890833         2.007548        -0.846756
 H        -1.236586         1.756459        -1.852622
