19
Iteration:  1136
 C        -3.237027        -0.186851        -2.849314
 C        -2.570318        -0.012281        -1.546312
 C        -2.856849        -0.772969        -0.266364
 C        -1.663650        -1.167380        -1.073777
 O        -0.337735        -0.998830        -0.639065
 C        -0.043184         0.053278         0.153079
 O         1.014540         0.060590         0.703832
 C        -1.097607         1.170378         0.030824
 C        -1.666565         1.233529        -1.328938
 H        -3.486102        -1.183166        -3.105743
 H        -4.195302         0.388061        -2.964859
 H        -2.465830         0.143979        -3.696117
 H        -2.873934        -0.373379         0.671055
 H        -3.605237        -1.519836        -0.399611
 H        -1.835137        -2.170127        -1.552664
 H        -1.862045         1.060663         0.743491
 H        -0.698818         2.053919         0.437533
 H        -2.491419         2.077297        -1.327325
 H        -0.907406         1.314156        -2.127375
