19
Iteration:  2173
 C        -3.461643        -0.091545        -2.751170
 C        -2.469511        -0.075854        -1.594992
 C        -2.822696        -0.924906        -0.384851
 C        -1.599084        -1.268696        -1.165102
 O        -0.303534        -1.022122        -0.602715
 C        -0.074614         0.086291         0.110058
 O         0.909204         0.076873         0.850517
 C        -1.013740         1.311492         0.043552
 C        -1.623758         1.248169        -1.378260
 H        -3.849959        -1.070563        -2.806301
 H        -4.166043         0.689957        -2.494279
 H        -2.894016         0.090343        -3.652847
 H        -2.769466        -0.546905         0.667686
 H        -3.723998        -1.604063        -0.476445
 H        -1.650904        -2.168036        -1.722247
 H        -1.882806         1.318616         0.755716
 H        -0.165012         2.217469         0.148617
 H        -2.157789         2.127057        -1.609989
 H        -0.868024         1.239231        -2.177494
