19
Iteration:  3306
 C        -2.728860        -0.019434        -2.935277
 C        -2.412682        -0.031480        -1.452673
 C        -3.148079        -1.135324        -0.656864
 C        -1.703624        -1.257537        -1.017865
 O        -0.783279        -1.128831         0.135360
 C        -0.031005         0.051299        -0.048314
 O         1.194372         0.072489         0.077874
 C        -0.787084         1.353975        -0.039588
 C        -2.088882         1.421394        -0.893804
 H        -3.226986        -1.033000        -3.010568
 H        -3.369084         0.856642        -3.218893
 H        -1.885236         0.123646        -3.608215
 H        -3.363106        -1.033507         0.387594
 H        -3.982333        -1.699812        -1.122869
 H        -1.342813        -1.899056        -1.813793
 H        -0.991958         1.264703         1.021970
 H        -0.029084         2.218469        -0.119479
 H        -2.974320         1.873080        -0.444324
 H        -1.838636         2.218293        -1.800438
