19
Iteration:   561
 C        -3.055003        -0.067401        -2.867970
 C        -2.395832        -0.066757        -1.530933
 C        -3.119081        -0.815899        -0.518408
 C        -1.736750        -1.248746        -0.920963
 O        -0.517223        -1.164150        -0.283209
 C        -0.019542         0.100920         0.109537
 O         1.157495         0.138281         0.282989
 C        -1.052498         1.287630         0.145005
 C        -1.761417         1.189072        -1.189860
 H        -3.438025        -1.120674        -3.245975
 H        -3.812042         0.755795        -2.821228
 H        -2.300558         0.287481        -3.716147
 H        -3.220550        -0.517549         0.505635
 H        -3.831811        -1.530623        -0.722372
 H        -1.721740        -2.099347        -1.635093
 H        -1.638331         1.037626         0.960542
 H        -0.529101         2.247946         0.354435
 H        -2.383271         2.176381        -1.378564
 H        -0.907218         1.217263        -1.868812
