19
Iteration:  4831
 C        -3.204753        -0.072751        -2.900335
 C        -2.505794         0.036635        -1.506485
 C        -2.887343        -0.891564        -0.290456
 C        -1.743442        -1.219137        -1.082277
 O        -0.515312        -1.176635        -0.437471
 C         0.065971        -0.030504         0.053930
 O         1.015683         0.064501         0.781754
 C        -0.835024         1.262799        -0.134548
 C        -1.841991         1.382507        -1.329589
 H        -3.237256        -1.095470        -3.303522
 H        -4.219793         0.296934        -3.151979
 H        -2.650921         0.501856        -3.585273
 H        -2.829161        -0.363847         0.639455
 H        -3.740681        -1.581920        -0.310026
 H        -1.718944        -2.117322        -1.775802
 H        -1.473584         1.138949         0.751497
 H        -0.104805         2.082207         0.103712
 H        -2.606909         2.267233        -1.164872
 H        -1.217087         1.632465        -2.280078
