19
Iteration:  4527
 C        -2.786341        -0.111381        -3.021946
 C        -2.424328        -0.076710        -1.550869
 C        -3.290350        -0.734714        -0.486080
 C        -1.790891        -1.247563        -0.915058
 O        -0.601392        -1.148139        -0.195648
 C         0.023713         0.096501         0.127250
 O         1.176693         0.154667        -0.011094
 C        -0.996935         1.153399         0.361529
 C        -1.773101         1.270497        -1.063196
 H        -3.296231        -1.117863        -3.118966
 H        -3.540053         0.671122        -3.309081
 H        -2.026307         0.027684        -3.796306
 H        -3.412025        -0.453657         0.574501
 H        -4.098102        -1.434919        -0.730677
 H        -1.857931        -2.166406        -1.438276
 H        -1.633927         0.818389         1.103683
 H        -0.549673         2.074156         0.649167
 H        -2.493848         2.095960        -1.039344
 H        -1.057358         1.768628        -1.867860
