19
Iteration:  1755charge 0 multiplicity 1
 C        -2.824869        -0.091917        -2.984401
 C        -2.557540        -0.034294        -1.441935
 C        -3.069870        -1.032053        -0.498321
 C        -1.667677        -1.276089        -1.080247
 O        -0.533649        -1.096148        -0.313234
 C         0.027556         0.100510         0.018771
 O         1.076329         0.121808         0.670446
 C        -0.727603         1.338473        -0.399224
 C        -2.234515         1.297061        -0.776584
 H        -2.782844        -1.107904        -3.233595
 H        -3.867875         0.244223        -3.155849
 H        -2.075430         0.549891        -3.476337
 H        -3.314999        -0.726541         0.593214
 H        -3.726386        -1.846034        -0.906983
 H        -1.612450        -2.098521        -1.754157
 H        -0.558108         2.352797         0.102233
 H        -0.126528         1.693727        -1.468710
 H        -2.726638         1.355537         0.176799
 H        -2.462345         2.138243        -1.490239
