19
Iteration:  2363charge 0 multiplicity 1
 C        -2.744179        -0.138414        -2.967294
 C        -2.400045        -0.018273        -1.517822
 C        -3.160247        -0.861990        -0.480630
 C        -1.794902        -1.251574        -0.849733
 O        -0.564574        -1.173154        -0.112476
 C        -0.034768         0.013370         0.043819
 O         1.158538         0.245563        -0.021161
 C        -1.056144         1.155786         0.229478
 C        -1.901789         1.374562        -1.082575
 H        -2.647512        -1.172720        -3.365089
 H        -3.671642         0.312541        -3.162703
 H        -1.991740         0.375874        -3.613566
 H        -3.463159        -0.341685         0.410531
 H        -3.960883        -1.414403        -0.896192
 H        -1.593132        -2.094631        -1.534751
 H        -1.710647         0.694779         1.049803
 H        -0.434186         2.030061         0.726057
 H        -2.707235         1.998320        -0.889245
 H        -1.440022         1.761534        -1.948183
