19
Iteration:   571
 C        -3.038120        -0.067545        -2.863434
 C        -2.411918        -0.038008        -1.508877
 C        -3.178601        -0.930917        -0.529462
 C        -1.731200        -1.253033        -1.011980
 O        -0.517151        -1.141362        -0.191900
 C        -0.004576         0.114254         0.057221
 O         1.187495         0.107431         0.316806
 C        -1.001194         1.278126         0.111515
 C        -1.754969         1.260223        -1.170204
 H        -3.704685        -1.005401        -2.939312
 H        -3.857624         0.710457        -2.883509
 H        -2.376198         0.170732        -3.767329
 H        -3.308308        -0.613250         0.498382
 H        -3.925443        -1.535596        -0.983935
 H        -1.638774        -2.140486        -1.613033
 H        -1.605662         1.190119         0.981780
 H        -0.541378         2.385272         0.148834
 H        -2.487123         2.170076        -1.300693
 H        -1.047690         1.437649        -2.007289
