19
Iteration:  1170charge 0 multiplicity 1
 C        -3.362289        -0.126696        -2.773046
 C        -2.491922        -0.073338        -1.519032
 C        -2.895745        -0.921807        -0.409889
 C        -1.650306        -1.286561        -1.211276
 O        -0.350391        -1.050339        -0.611549
 C        -0.035438         0.083381         0.131425
 O         0.927200         0.108630         0.850113
 C        -0.902321         1.378128        -0.027932
 C        -1.684666         1.214927        -1.288253
 H        -4.005398        -1.027980        -2.713730
 H        -4.008593         0.773184        -2.786235
 H        -2.724139        -0.077693        -3.702575
 H        -2.890881        -0.542597         0.631399
 H        -3.718656        -1.634876        -0.610013
 H        -1.559200        -2.227859        -1.657601
 H        -1.534120         1.416936         0.787366
 H        -0.149577         2.197167        -0.078457
 H        -2.496642         2.037030        -1.229732
 H        -1.087460         1.525205        -2.132613
