19
Iteration:   941charge 0 multiplicity 1
 C        -2.715543        -0.065438        -2.957463
 C        -2.461006        -0.046575        -1.482911
 C        -3.204894        -1.059087        -0.590848
 C        -1.735906        -1.187029        -0.914033
 O        -0.620108        -1.092731        -0.073514
 C         0.031590         0.056199        -0.015199
 O         1.207047         0.096233         0.255573
 C        -0.833983         1.340843        -0.183677
 C        -2.190238         1.274718        -0.851874
 H        -2.849916        -1.069429        -3.312577
 H        -3.643249         0.477819        -3.148454
 H        -1.963717         0.523653        -3.435636
 H        -3.606531        -0.787305         0.355270
 H        -3.744535        -1.795347        -1.049108
 H        -1.512764        -2.116339        -1.562588
 H        -0.873586         1.619911         0.847615
 H        -0.135941         2.147327        -0.583384
 H        -2.964219         1.665227        -0.277309
 H        -2.000790         2.099329        -1.644494
