19
Iteration:  2376
 C        -2.779450        -0.163160        -3.039082
 C        -2.397453        -0.043993        -1.561733
 C        -3.238306        -0.813136        -0.458740
 C        -1.792657        -1.216654        -0.904702
 O        -0.543587        -1.276417        -0.135487
 C         0.002074         0.145094         0.031301
 O         1.208426         0.285274         0.027625
 C        -1.085641         1.110414         0.236750
 C        -1.843915         1.315203        -1.018366
 H        -2.869844        -1.203885        -3.327201
 H        -3.776986         0.265934        -3.271822
 H        -2.104099         0.446435        -3.650318
 H        -3.341521        -0.230345         0.475237
 H        -3.944419        -1.625718        -0.611758
 H        -1.958016        -2.141760        -1.337302
 H        -1.863762         0.878587         1.116682
 H        -0.759513         2.085578         0.461825
 H        -2.591568         2.111898        -0.845714
 H        -1.019776         1.853172        -1.571872
