19
Iteration:  1650
 C        -3.150798         0.204469        -2.734545
 C        -2.478444        -0.076673        -1.419352
 C        -2.975279        -1.367080        -0.689945
 C        -1.584372        -1.275079        -1.252380
 O        -0.629076        -1.053557        -0.170433
 C         0.097682         0.155678         0.063312
 O         0.768556         0.297016         1.051711
 C        -0.457841         1.190685        -1.017861
 C        -2.003926         1.258120        -0.744374
 H        -3.797107        -0.723445        -2.981595
 H        -3.811179         1.072798        -2.594693
 H        -2.467996         0.260181        -3.664432
 H        -2.963017        -1.577733         0.357464
 H        -3.617349        -2.053543        -1.132937
 H        -1.263108        -1.821929        -2.129982
 H        -0.003385         2.159106        -0.777796
 H        -0.268894         0.806437        -1.977125
 H        -2.001479         1.358499         0.438907
 H        -2.636356         2.138922        -0.924825
