19
Iteration:  2768charge 0 multiplicity 1
 C        -2.671490        -0.113211        -3.003756
 C        -2.396864        -0.054600        -1.504453
 C        -3.219726        -0.895887        -0.614988
 C        -1.723128        -1.274425        -0.895685
 O        -0.659424        -1.159937         0.045509
 C        -0.034915         0.137436         0.014744
 O         1.137908         0.205541        -0.121364
 C        -0.930963         1.235485         0.247454
 C        -1.939807         1.237605        -0.954774
 H        -3.195328        -1.057847        -3.151641
 H        -3.331310         0.742098        -3.269242
 H        -1.674022        -0.100114        -3.567931
 H        -3.497161        -0.423967         0.354986
 H        -4.002891        -1.493606        -1.229547
 H        -1.764416        -2.267072        -1.302602
 H        -1.610981         1.270402         1.176270
 H        -0.427936         2.181463         0.281268
 H        -2.772714         1.875585        -0.541801
 H        -1.597775         1.860898        -1.857153
