19
Iteration:  4902charge 0 multiplicity 1
 C        -2.924429        -0.043091        -3.018309
 C        -2.484894        -0.031651        -1.539764
 C        -3.160390        -0.793588        -0.476050
 C        -1.771995        -1.230235        -0.885716
 O        -0.588178        -1.171967        -0.096979
 C         0.000780         0.067495         0.108020
 O         1.233292         0.156071         0.094298
 C        -1.044410         1.143582         0.217964
 C        -1.784595         1.278452        -1.165997
 H        -3.424801        -1.000330        -3.268103
 H        -3.558210         0.756505        -3.401743
 H        -2.027401         0.005242        -3.705219
 H        -3.376602        -0.328660         0.484587
 H        -3.974511        -1.444008        -0.862351
 H        -1.656217        -2.145476        -1.510096
 H        -1.636440         0.777609         1.164646
 H        -0.487585         2.048979         0.459988
 H        -2.346711         2.166895        -1.174276
 H        -1.015804         1.314507        -1.879676
