19
Iteration:  1841charge 0 multiplicity 1
 C        -2.971654        -0.024036        -2.946965
 C        -2.449362        -0.080457        -1.506073
 C        -3.039624        -1.220887        -0.750313
 C        -1.599849        -1.286416        -1.055771
 O        -0.759557        -0.937070         0.065630
 C         0.016885         0.147773         0.107157
 O         1.172277         0.035498         0.446573
 C        -0.667658         1.427351        -0.511793
 C        -2.207294         1.302520        -0.676986
 H        -3.150718        -1.102238        -3.245797
 H        -3.859790         0.609149        -3.325861
 H        -2.175259         0.300350        -3.686406
 H        -3.237839        -1.324262         0.378707
 H        -3.627059        -1.950047        -1.406713
 H        -1.015989        -1.937760        -1.648260
 H        -0.459902         2.144826         0.280567
 H        -0.074914         1.541549        -1.291629
 H        -2.575003         1.380853         0.356140
 H        -2.634374         2.165057        -1.353958
