19
Iteration:  1639charge 0 multiplicity 1
 C        -3.133434         0.136499        -2.746147
 C        -2.488278        -0.065594        -1.372753
 C        -2.999958        -1.339995        -0.663398
 C        -1.577848        -1.255447        -1.205403
 O        -0.557737        -1.126525        -0.208320
 C        -0.015277         0.155204         0.039805
 O         0.748082         0.268778         1.016420
 C        -0.426237         1.301924        -1.016838
 C        -1.983284         1.239018        -0.697595
 H        -3.852098        -0.688880        -3.092461
 H        -3.765022         1.049369        -2.774450
 H        -2.334217         0.394805        -3.545387
 H        -3.085651        -1.285569         0.413762
 H        -3.657761        -1.860473        -1.283829
 H        -1.207833        -1.993016        -1.894648
 H         0.010455         2.305918        -0.847998
 H        -0.217131         1.150712        -2.055874
 H        -2.177432         1.077439         0.448507
 H        -2.500500         2.104472        -1.175695
