19
Iteration:  3136
 C        -3.242293        -0.073293        -2.901037
 C        -2.494697        -0.060182        -1.573666
 C        -2.908442        -0.950312        -0.374623
 C        -1.665824        -1.231045        -1.166738
 O        -0.463464        -1.132178        -0.410638
 C         0.024309         0.042531         0.072386
 O         1.016380         0.108100         0.822427
 C        -0.825939         1.334664        -0.108181
 C        -1.870593         1.302203        -1.248340
 H        -3.893179        -0.945796        -2.809213
 H        -3.901813         0.804852        -2.924853
 H        -2.657318        -0.101354        -3.887756
 H        -2.848367        -0.532199         0.649303
 H        -3.823694        -1.629595        -0.307610
 H        -1.563100        -2.187623        -1.760937
 H        -1.335078         1.471832         0.853833
 H        -0.030866         2.057843        -0.320565
 H        -2.803978         2.073074        -1.103115
 H        -1.405180         1.584649        -2.221557
