19
Iteration:  1444
 C        -2.817003        -0.069547        -3.016207
 C        -2.488367        -0.021221        -1.536463
 C        -3.068640        -1.094454        -0.576681
 C        -1.750107        -1.222135        -1.026602
 O        -0.539727        -1.135577        -0.162607
 C         0.016602         0.090493         0.054932
 O         1.161732         0.113292         0.502196
 C        -0.763483         1.408016        -0.321857
 C        -2.282063         1.311365        -0.749327
 H        -2.850524        -1.130425        -3.339448
 H        -3.724351         0.443743        -3.254474
 H        -2.028967         0.243406        -3.679324
 H        -3.287647        -0.788977         0.485896
 H        -3.712615        -2.044442        -0.815965
 H        -1.556123        -2.150924        -1.604725
 H        -0.475950         2.131754         0.415148
 H        -0.311151         1.891807        -1.233438
 H        -2.879528         1.299132         0.151950
 H        -2.511661         2.219937        -1.337207
