19
Iteration:  1820charge 0 multiplicity 1
 C        -2.965827        -0.012392        -2.982886
 C        -2.499982        -0.150302        -1.560226
 C        -3.069455        -1.231422        -0.678223
 C        -1.582173        -1.172051        -1.054606
 O        -0.723975        -1.023159         0.077275
 C         0.067654         0.175427         0.060114
 O         1.170392         0.083942         0.470646
 C        -0.695474         1.422140        -0.391517
 C        -2.146173         1.229788        -0.805705
 H        -3.631336        -0.841124        -3.115180
 H        -3.611662         0.908221        -2.862500
 H        -2.323972         0.228368        -3.878772
 H        -3.377888        -0.984959         0.384250
 H        -3.774310        -1.965738        -1.175297
 H        -1.137521        -1.775841        -1.798762
 H        -0.618898         1.961382         0.571193
 H        -0.161636         1.714189        -1.261577
 H        -2.703590         1.207607         0.072741
 H        -2.328153         2.028436        -1.584693
