19
Iteration:   446charge 0 multiplicity 1
 C        -3.177360        -0.010887        -2.839296
 C        -2.477741        -0.038895        -1.525352
 C        -2.985261        -1.068852        -0.466053
 C        -1.650196        -1.194314        -1.091728
 O        -0.551941        -1.202999        -0.180168
 C         0.003861         0.011982         0.114240
 O         1.101961         0.125885         0.620794
 C        -0.762801         1.280633        -0.229511
 C        -1.961445         1.394517        -1.240083
 H        -3.914733        -0.803396        -2.949010
 H        -3.659638         1.011207        -2.963074
 H        -2.505124         0.011270        -3.719975
 H        -3.155669        -0.852531         0.590170
 H        -3.781438        -1.593355        -0.923313
 H        -1.474388        -2.125124        -1.805094
 H        -1.097244         1.719863         0.818695
 H         0.156758         2.054075        -0.567648
 H        -2.828371         1.951219        -0.850834
 H        -1.629491         1.949732        -2.187221
