19
Iteration:  1244charge 0 multiplicity 1
 C        -3.196684        -0.136654        -2.814844
 C        -2.428565        -0.064133        -1.515377
 C        -3.020066        -1.046600        -0.447830
 C        -1.641664        -1.234376        -1.160551
 O        -0.390716        -1.109458        -0.534243
 C        -0.040808         0.132747         0.164420
 O         0.898943         0.044534         0.925470
 C        -0.597038         1.447544        -0.411005
 C        -2.048420         1.330675        -1.065168
 H        -3.255094        -1.144047        -3.050946
 H        -4.247164         0.171027        -2.636706
 H        -2.707124         0.556412        -3.578106
 H        -2.967895        -0.766545         0.559623
 H        -3.731852        -1.772016        -0.746243
 H        -1.632153        -2.056853        -1.836448
 H        -0.458224         2.135323         0.502346
 H         0.196617         1.566468        -1.074771
 H        -2.813357         1.653965        -0.348221
 H        -2.058925         2.130094        -1.890545
