19
Iteration:   875
 C        -3.021831         0.016423        -2.904734
 C        -2.435555        -0.072668        -1.448045
 C        -3.098075        -1.165418        -0.655292
 C        -1.659068        -1.239291        -1.109564
 O        -0.643527        -1.098236        -0.052583
 C         0.054033         0.086405         0.060136
 O         1.184189         0.076540         0.567700
 C        -0.697165         1.403109        -0.406341
 C        -2.144762         1.316879        -0.871549
 H        -3.488368        -0.943626        -3.205002
 H        -3.843351         0.742770        -2.980862
 H        -2.144484         0.308936        -3.503034
 H        -3.184668        -1.124937         0.382931
 H        -3.809155        -1.649588        -1.270110
 H        -1.268296        -2.082609        -1.790724
 H        -0.625187         2.060640         0.409964
 H        -0.159943         1.913704        -1.121661
 H        -2.899063         1.558308        -0.164035
 H        -2.419826         2.002193        -1.810757
