19
Iteration:  4536
 C        -2.807115        -0.131161        -3.095040
 C        -2.450701        -0.014033        -1.534969
 C        -3.234958        -0.729230        -0.443753
 C        -1.877613        -1.256285        -0.954633
 O        -0.589563        -1.149772        -0.180480
 C        -0.063108         0.040520         0.128145
 O         1.173474         0.233081         0.001124
 C        -0.944503         1.135378         0.318766
 C        -1.747598         1.254950        -1.029920
 H        -3.356097        -1.084827        -3.370867
 H        -3.434869         0.706727        -3.434000
 H        -1.878825        -0.230147        -3.589787
 H        -2.988777        -0.479686         0.562659
 H        -3.993230        -1.431676        -0.789378
 H        -1.888068        -2.249606        -1.353873
 H        -1.645366         0.850126         1.124342
 H        -0.409042         2.058850         0.702265
 H        -2.482394         1.937616        -0.704814
 H        -0.984441         1.581462        -1.803286
