19
Iteration:   485
 C        -3.111041        -0.183681        -2.960208
 C        -2.446481        -0.020574        -1.544918
 C        -3.091174        -0.926450        -0.437196
 C        -1.771454        -1.258972        -1.001928
 O        -0.592520        -1.044269        -0.332789
 C         0.077163         0.094352         0.070423
 O         1.208895         0.004895         0.509192
 C        -0.831066         1.365264         0.095442
 C        -1.886253         1.355011        -1.216907
 H        -3.401500        -1.232932        -3.230714
 H        -4.005138         0.407645        -2.980017
 H        -2.342950        -0.019516        -3.757079
 H        -3.218956        -0.595236         0.587017
 H        -3.880033        -1.552546        -0.814076
 H        -1.668655        -2.060499        -1.719113
 H        -1.378222         1.263645         0.986957
 H        -0.265341         2.157841         0.154088
 H        -2.761650         1.965564        -0.873415
 H        -1.431993         1.785001        -2.083041
