19
Iteration:   782charge 0 multiplicity 1
 C        -3.077397         0.310410        -2.735102
 C        -2.546578        -0.018805        -1.362993
 C        -2.979691        -1.296419        -0.566409
 C        -1.616741        -1.351819        -1.233945
 O        -0.544096        -1.196502        -0.216271
 C         0.000384         0.077059        -0.040913
 O         0.670798         0.381030         0.943503
 C        -0.424561         1.158533        -0.948272
 C        -1.945752         1.199072        -0.713793
 H        -3.258509        -0.561125        -3.300210
 H        -4.012685         0.818550        -2.861279
 H        -2.291027         0.913324        -3.138083
 H        -2.792223        -1.134735         0.549166
 H        -3.900875        -1.766630        -0.980612
 H        -1.319891        -2.011566        -2.054430
 H         0.075003         2.139809        -0.684347
 H        -0.153284         0.979238        -2.129778
 H        -2.104622         1.282241         0.433548
 H        -2.423750         2.039687        -1.084098
