19
Iteration:   536
 C        -3.034457        -0.084919        -3.079240
 C        -2.435248        -0.019195        -1.569891
 C        -3.063522        -0.748092        -0.260325
 C        -1.861067        -1.300129        -0.955007
 O        -0.469106        -1.188056        -0.369611
 C        -0.042536         0.020217         0.117448
 O         1.127667         0.294471         0.334777
 C        -1.045709         1.087548         0.141223
 C        -1.667988         1.237340        -1.200140
 H        -3.078847        -1.161802        -3.482742
 H        -4.020423         0.484964        -3.079781
 H        -2.385850         0.402877        -3.821506
 H        -2.857211        -0.306868         0.746312
 H        -4.088195        -1.299107        -0.206426
 H        -1.980178        -2.245630        -1.304187
 H        -1.793831         0.820469         0.930933
 H        -0.515999         2.226267         0.490566
 H        -2.344282         2.108562        -0.950870
 H        -0.884160         1.541725        -1.955071
