19
Iteration:  1620
 C        -3.042060         0.134776        -2.806750
 C        -2.492922        -0.069720        -1.411111
 C        -3.016136        -1.207866        -0.551711
 C        -1.609490        -1.267921        -1.125761
 O        -0.480918        -1.113638        -0.269214
 C         0.024790         0.106737        -0.089763
 O         0.698688         0.284495         0.921072
 C        -0.499611         1.217414        -0.767955
 C        -2.033034         1.209967        -0.751005
 H        -3.512569        -0.820703        -3.176754
 H        -3.858814         0.825778        -2.824330
 H        -2.330889         0.409210        -3.547349
 H        -3.056540        -1.066998         0.487752
 H        -3.606421        -1.947730        -0.999910
 H        -1.349957        -1.857557        -2.015666
 H        -0.143810         2.111619        -0.319131
 H        -0.075039         1.280574        -1.936453
 H        -2.263646         1.336600         0.271723
 H        -2.498775         2.104549        -1.153856
