19
Iteration:   404
 C        -3.236797        -0.076446        -2.874137
 C        -2.492502        -0.084925        -1.535083
 C        -3.016933        -0.988707        -0.369077
 C        -1.709809        -1.217799        -1.180268
 O        -0.487978        -1.046831        -0.421859
 C         0.017355         0.076124         0.121352
 O         1.018166         0.052353         0.833604
 C        -0.669223         1.325748        -0.267992
 C        -1.886438         1.254132        -1.156043
 H        -3.705561        -1.076089        -3.121265
 H        -4.045792         0.751460        -2.944326
 H        -2.545504         0.389433        -3.573247
 H        -2.910784        -0.541941         0.644263
 H        -3.771412        -1.754975        -0.570425
 H        -1.630839        -2.222051        -1.646705
 H        -0.855986         1.832502         0.579270
 H         0.145875         1.917980        -0.802296
 H        -2.682519         1.949057        -0.709491
 H        -1.769802         1.791321        -2.151671
