19
Iteration:  4289charge 0 multiplicity 1
 C        -3.376873        -0.021410        -2.710937
 C        -2.433928         0.022869        -1.500218
 C        -2.856199        -0.877066        -0.354191
 C        -1.658556        -1.256826        -1.181748
 O        -0.301096        -1.255565        -0.641243
 C        -0.044630        -0.037875         0.048828
 O         0.754429         0.037470         1.000745
 C        -0.643813         1.352895        -0.297024
 C        -1.856615         1.411710        -1.267372
 H        -3.335247        -1.016368        -3.084350
 H        -4.387916         0.119425        -2.492472
 H        -3.030599         0.552393        -3.549037
 H        -2.630172        -0.564007         0.676725
 H        -3.783733        -1.447065        -0.439335
 H        -1.563754        -2.142513        -1.819029
 H        -1.043379         1.627276         0.755463
 H         0.193602         1.989390        -0.424092
 H        -2.797402         1.935059        -0.864540
 H        -1.648207         1.884315        -2.209135
