19
Iteration:  1305
 C        -3.042241         0.096357        -2.831098
 C        -2.505926        -0.077578        -1.424876
 C        -3.061169        -1.164316        -0.538639
 C        -1.594485        -1.299749        -1.159052
 O        -0.463757        -1.174476        -0.273419
 C         0.013432         0.175368         0.037116
 O         0.833584         0.218167         0.874084
 C        -0.554140         1.244775        -0.728606
 C        -2.083166         1.316347        -0.763544
 H        -3.156685        -0.868044        -3.420356
 H        -3.954477         0.726218        -2.919762
 H        -2.358223         0.497495        -3.537814
 H        -3.083497        -1.093750         0.522820
 H        -3.941560        -1.703248        -0.898694
 H        -1.402730        -2.079833        -1.987284
 H        -0.173720         2.191172        -0.404712
 H        -0.203726         1.219475        -1.797742
 H        -2.515655         1.366204         0.251403
 H        -2.422417         2.138479        -1.345529
