19
Iteration:   904charge 0 multiplicity 1
 C        -2.988016        -0.036866        -3.023390
 C        -2.467231        -0.071137        -1.535951
 C        -3.070944        -1.124405        -0.604785
 C        -1.652770        -1.216668        -1.032450
 O        -0.685344        -1.060324        -0.011557
 C        -0.012790         0.092123         0.107834
 O         1.156117         0.057506         0.338427
 C        -0.706342         1.427583        -0.202001
 C        -2.041370         1.281345        -0.861744
 H        -3.433882        -0.948218        -3.391678
 H        -3.716983         0.754277        -3.199415
 H        -2.061259         0.059833        -3.662138
 H        -3.209878        -0.979353         0.488923
 H        -3.703657        -1.948659        -1.139252
 H        -1.347643        -2.035105        -1.656597
 H        -0.908536         1.906857         0.841099
 H        -0.013719         2.187295        -0.883183
 H        -2.816392         1.490217        -0.044985
 H        -2.271260         1.921103        -1.597415
