19
Iteration:  4101charge 0 multiplicity 1
 C        -2.983826        -0.043558        -2.877160
 C        -2.341709        -0.032685        -1.540529
 C        -3.095690        -0.823727        -0.472040
 C        -1.729347        -1.269670        -1.010313
 O        -0.599136        -1.180417        -0.219478
 C        -0.031823         0.082662         0.103492
 O         1.192010         0.077626         0.219417
 C        -1.007199         1.225334         0.113743
 C        -1.838307         1.306890        -1.144081
 H        -3.185364        -1.046502        -3.313213
 H        -3.841800         0.615702        -2.957473
 H        -2.233636         0.353669        -3.491368
 H        -3.127566        -0.435641         0.578010
 H        -3.924940        -1.541227        -0.695539
 H        -1.794662        -2.217686        -1.518554
 H        -1.741202         1.093866         0.932101
 H        -0.412111         2.205782         0.280074
 H        -2.730288         2.005204        -0.774532
 H        -1.375947         1.850583        -1.974516
