19
Iteration:  4074charge 0 multiplicity 1
 C        -3.042000        -0.012636        -3.008841
 C        -2.478072        -0.024239        -1.477401
 C        -3.174263        -1.019738        -0.547348
 C        -1.729340        -1.274397        -0.981331
 O        -0.614197        -1.219514        -0.144208
 C         0.051168         0.069073         0.031863
 O         1.202961         0.135551         0.323755
 C        -0.793232         1.312278         0.026544
 C        -1.949723         1.339288        -0.991475
 H        -3.495721        -0.956504        -3.278948
 H        -3.608478         0.896013        -3.329186
 H        -2.060090         0.091386        -3.656773
 H        -3.332818        -0.585992         0.407278
 H        -3.930887        -1.680317        -0.929695
 H        -1.619250        -2.076447        -1.765859
 H        -1.117028         1.465326         1.078421
 H        -0.044339         2.106313        -0.284185
 H        -2.644890         2.247776        -0.698284
 H        -1.405414         1.740072        -1.885700
