19
Iteration:  1712charge 0 multiplicity 1
 C        -3.063175         0.044102        -2.851214
 C        -2.474763        -0.123044        -1.441264
 C        -3.075478        -1.143340        -0.623100
 C        -1.598783        -1.252552        -1.148174
 O        -0.564932        -1.075611        -0.228186
 C         0.007399         0.166552         0.055883
 O         0.938724         0.187553         0.875785
 C        -0.575082         1.316190        -0.720397
 C        -2.066480         1.190735        -0.750114
 H        -3.011712        -0.786641        -3.489064
 H        -4.144840         0.242619        -2.785401
 H        -2.556775         0.843892        -3.424356
 H        -3.159899        -0.999768         0.502062
 H        -3.665488        -1.909855        -1.161865
 H        -1.398885        -2.027684        -1.855654
 H        -0.050650         2.217189        -0.252687
 H         0.007440         1.411841        -1.759155
 H        -2.564809         1.436830         0.200933
 H        -2.507582         1.985334        -1.427144
