19
Iteration:  4042
 C        -3.003110        -0.019615        -2.964683
 C        -2.473106        -0.056027        -1.432760
 C        -3.115833        -1.080583        -0.535799
 C        -1.671026        -1.206410        -1.046922
 O        -0.657333        -1.065991        -0.133879
 C         0.122584         0.114440        -0.027120
 O         1.225486        -0.089149         0.482705
 C        -0.777308         1.347691        -0.168558
 C        -2.130545         1.363553        -1.004808
 H        -3.669203        -0.820183        -3.242800
 H        -3.513207         0.933499        -3.220429
 H        -2.069209        -0.117229        -3.594493
 H        -3.106718        -0.704179         0.453933
 H        -3.992375        -1.600673        -0.874750
 H        -1.456038        -1.876623        -1.915524
 H        -0.925734         1.523868         0.932070
 H        -0.137241         2.283380        -0.509236
 H        -2.986446         1.958426        -0.348383
 H        -1.875340         1.922276        -1.937963
