19
Iteration:  2921
 C        -3.107786        -0.095635        -2.928949
 C        -2.471578        -0.060090        -1.526677
 C        -3.064275        -0.814531        -0.412082
 C        -1.691358        -1.228955        -1.055526
 O        -0.444316        -1.181865        -0.477924
 C         0.016665         0.059131         0.187922
 O         1.128714         0.153908         0.610524
 C        -0.958449         1.258887         0.018317
 C        -1.860682         1.262156        -1.238769
 H        -3.477459        -1.078271        -3.125410
 H        -4.026707         0.442264        -2.831991
 H        -2.420706         0.140829        -3.756516
 H        -3.035489        -0.460826         0.653097
 H        -3.860400        -1.565711        -0.480287
 H        -1.771376        -2.077785        -1.651035
 H        -1.691318         1.335462         0.911157
 H        -0.306235         2.131253        -0.122501
 H        -2.676841         1.985459        -1.107273
 H        -1.248252         1.609199        -1.994329
