19
Iteration:   186charge 0 multiplicity 1
 C        -2.930415        -0.088425        -3.013191
 C        -2.501618        -0.016759        -1.548766
 C        -3.131693        -0.864523        -0.433248
 C        -1.770988        -1.260781        -0.975616
 O        -0.504027        -1.185694        -0.239725
 C         0.031569         0.018807         0.047824
 O         1.168665         0.039793         0.428148
 C        -0.805802         1.372836        -0.060190
 C        -2.063084         1.346150        -1.051385
 H        -2.824261        -1.069040        -3.413469
 H        -3.992417         0.254216        -3.091452
 H        -2.247276         0.392625        -3.666224
 H        -2.988776        -0.559869         0.548206
 H        -4.014845        -1.403402        -0.476265
 H        -1.682320        -2.201844        -1.525672
 H        -1.167288         1.577446         0.996241
 H        -0.231874         2.155996        -0.364271
 H        -2.914854         1.843973        -0.565473
 H        -1.725285         1.838466        -1.893727
