19
Iteration:  1754
 C        -2.825920        -0.095413        -3.002455
 C        -2.558673        -0.031476        -1.434654
 C        -3.071078        -1.032376        -0.495014
 C        -1.666199        -1.276209        -1.086234
 O        -0.534793        -1.095255        -0.312667
 C         0.031004         0.098366         0.010050
 O         1.074993         0.122610         0.680375
 C        -0.715397         1.341004        -0.404391
 C        -2.238972         1.301719        -0.761084
 H        -2.773898        -1.143440        -3.247694
 H        -3.883121         0.246678        -3.157762
 H        -2.107742         0.566860        -3.487999
 H        -3.322639        -0.721790         0.616878
 H        -3.727437        -1.877859        -0.877476
 H        -1.617608        -2.102394        -1.776057
 H        -0.573364         2.351534         0.096695
 H        -0.155996         1.675616        -1.461377
 H        -2.717428         1.351716         0.169416
 H        -2.445641         2.134827        -1.513752
