19
Iteration:   277charge 0 multiplicity 1
 C        -3.470620         0.015271        -2.673475
 C        -2.391019        -0.076499        -1.599466
 C        -2.804024        -0.905156        -0.373190
 C        -1.631640        -1.313225        -1.214952
 O        -0.344616        -1.116668        -0.605553
 C        -0.081002         0.054450         0.158048
 O         0.913217         0.114600         0.854823
 C        -1.005789         1.307571        -0.053050
 C        -1.598418         1.231865        -1.396213
 H        -4.262266        -0.783542        -2.507921
 H        -3.979578         0.904902        -2.530640
 H        -3.195638        -0.250226        -3.695320
 H        -2.757846        -0.303429         0.638510
 H        -3.900759        -1.331366        -0.500132
 H        -1.519590        -2.238132        -1.763044
 H        -1.659218         1.416282         0.876599
 H        -0.306049         2.151340         0.104547
 H        -2.222431         2.097766        -1.628404
 H        -0.719690         1.181976        -2.009340
