19
Iteration:  1843
 C        -2.956286        -0.026893        -2.952868
 C        -2.468500        -0.084840        -1.493653
 C        -3.054347        -1.218037        -0.747047
 C        -1.586638        -1.292025        -1.063420
 O        -0.767196        -0.936682         0.066988
 C         0.011013         0.156039         0.103790
 O         1.180849         0.040141         0.450782
 C        -0.670747         1.416350        -0.530763
 C        -2.209786         1.315573        -0.664479
 H        -3.090361        -1.038579        -3.198477
 H        -3.841510         0.551910        -3.259989
 H        -2.151400         0.346910        -3.660177
 H        -3.218217        -1.347813         0.300285
 H        -3.648037        -1.885237        -1.386518
 H        -1.010851        -1.933056        -1.689113
 H        -0.469847         2.096132         0.296492
 H        -0.068026         1.517381        -1.350906
 H        -2.526468         1.334449         0.333934
 H        -2.601494         2.101698        -1.325413
