19
Iteration:   252charge 0 multiplicity 1
 C        -3.344843        -0.071606        -2.787969
 C        -2.457595         0.001070        -1.579452
 C        -2.818207        -0.854788        -0.363481
 C        -1.684710        -1.194830        -1.151277
 O        -0.378040        -1.140111        -0.494915
 C        -0.072952         0.015788         0.173472
 O         1.001964         0.065807         0.744416
 C        -0.950233         1.264209        -0.072098
 C        -1.725839         1.292500        -1.363767
 H        -3.994439        -0.967215        -2.777234
 H        -4.084403         0.764270        -2.727046
 H        -2.825649        -0.171308        -3.716295
 H        -2.557653        -0.502265         0.631499
 H        -3.664867        -1.480783        -0.393101
 H        -1.652229        -2.168229        -1.727176
 H        -1.818442         1.227050         0.861006
 H        -0.348033         2.059985         0.217665
 H        -2.500611         2.079079        -1.272455
 H        -1.098540         1.506433        -2.207720
