19
Iteration:  3542charge 0 multiplicity 1
 C        -3.176332        -0.016357        -2.916755
 C        -2.529130        -0.009543        -1.543478
 C        -3.031148        -0.969746        -0.465217
 C        -1.707949        -1.260006        -1.100390
 O        -0.444353        -1.154392        -0.477586
 C         0.048771         0.032976         0.093067
 O         0.916898        -0.005427         0.928666
 C        -0.494735         1.385699        -0.487784
 C        -2.034212         1.376725        -0.859044
 H        -3.335656        -1.076335        -3.134464
 H        -4.144568         0.427694        -2.868026
 H        -2.597534         0.408561        -3.793043
 H        -3.136716        -0.637538         0.603079
 H        -3.775813        -1.671986        -0.825901
 H        -1.622275        -2.095684        -1.762369
 H        -0.225041         2.285384         0.180552
 H        -0.003757         1.480758        -1.416873
 H        -2.686044         1.434217        -0.101023
 H        -2.159436         2.107807        -1.583499
