19
Iteration:  4869charge 0 multiplicity 1
 C        -3.058531        -0.155590        -2.921290
 C        -2.400066        -0.063290        -1.626059
 C        -3.113418        -0.732871        -0.502792
 C        -1.818530        -1.275511        -0.973422
 O        -0.594468        -1.131211        -0.360756
 C         0.032468         0.058189         0.192192
 O         1.206612         0.099780         0.387038
 C        -0.881338         1.225125         0.168292
 C        -1.815466         1.324707        -1.163103
 H        -3.053660        -1.240563        -3.216030
 H        -4.113478         0.103436        -2.897854
 H        -2.447440         0.403184        -3.718345
 H        -3.258859        -0.256038         0.478816
 H        -3.964377        -1.372893        -0.801235
 H        -1.823896        -2.221437        -1.527448
 H        -1.522474         1.285795         1.160519
 H        -0.288784         2.132599         0.267241
 H        -2.591126         2.002382        -1.104023
 H        -1.287802         1.683000        -2.003247
