19
Iteration:  3029charge 0 multiplicity 1
 C        -3.489619        -0.139937        -2.581399
 C        -2.436333        -0.027073        -1.498172
 C        -2.675064        -0.822677        -0.252798
 C        -1.535671        -1.245046        -1.172247
 O        -0.100583        -0.976487        -0.790203
 C        -0.123276         0.059811         0.087001
 O         0.446121        -0.165108         1.155320
 C        -0.716298         1.374382        -0.366715
 C        -1.775428         1.292825        -1.461852
 H        -3.697295        -1.181094        -2.824250
 H        -4.411569         0.360172        -2.284614
 H        -3.234365         0.483784        -3.537502
 H        -2.210663        -0.557682         0.741949
 H        -3.563149        -1.459622        -0.271111
 H        -1.624844        -2.142949        -1.781177
 H        -1.285964         1.711624         0.599440
 H        -0.027137         2.161441        -0.378654
 H        -2.504745         2.192575        -1.547875
 H        -1.173120         1.370918        -2.451506
