19
Iteration:  4588
 C        -2.929592        -0.039520        -2.984755
 C        -2.439719        -0.043779        -1.520289
 C        -3.140560        -0.862866        -0.425042
 C        -1.791042        -1.315659        -0.910491
 O        -0.595209        -1.136035        -0.261171
 C         0.029001         0.123991         0.056735
 O         1.231983         0.070540         0.280067
 C        -0.996127         1.192336         0.129452
 C        -1.833049         1.356398        -1.170789
 H        -3.743233        -0.766143        -3.069432
 H        -3.406242         0.895054        -3.259131
 H        -2.141056        -0.406125        -3.672987
 H        -3.402579        -0.312446         0.473989
 H        -3.996792        -1.432044        -0.881398
 H        -1.715185        -2.269457        -1.493152
 H        -1.583311         0.905744         1.100309
 H        -0.398426         2.191262         0.282481
 H        -2.604116         2.132060        -0.854338
 H        -1.201318         1.763095        -1.882623
