19
Iteration:  2332
 C        -2.754509        -0.100462        -2.970667
 C        -2.421547        -0.058042        -1.521368
 C        -3.094487        -1.086473        -0.527165
 C        -1.761259        -1.259365        -0.982780
 O        -0.710630        -1.114897         0.005882
 C        -0.033986         0.029424         0.049038
 O         1.173482         0.153879        -0.026059
 C        -0.958660         1.381227         0.179355
 C        -1.929431         1.315394        -0.989042
 H        -3.119235        -1.072702        -3.391153
 H        -3.494229         0.690139        -3.240011
 H        -1.932711         0.309998        -3.569220
 H        -3.246373        -0.439447         0.350028
 H        -3.959148        -1.577646        -0.888225
 H        -1.379375        -2.025095        -1.635058
 H        -1.458848         1.259987         1.262830
 H        -0.367218         2.234101         0.397529
 H        -2.818512         2.042955        -0.807365
 H        -1.410034         1.874801        -1.860782
