19
Iteration:  4913
 C        -2.797272        -0.048685        -2.925198
 C        -2.485353         0.059300        -1.531863
 C        -3.150861        -0.834482        -0.467375
 C        -1.792920        -1.192073        -0.912724
 O        -0.595923        -1.224582        -0.048586
 C         0.003362         0.016117         0.087602
 O         1.195510         0.180284         0.041509
 C        -1.055018         1.115899         0.157248
 C        -1.793030         1.301159        -1.219471
 H        -3.540819        -0.838036        -3.179753
 H        -3.292683         0.910743        -3.007761
 H        -1.836918        -0.102186        -3.518401
 H        -3.234749        -0.507791         0.561052
 H        -3.888117        -1.644004        -0.691253
 H        -1.870863        -2.197386        -1.419307
 H        -1.978349         0.860669         0.889034
 H        -0.713463         2.091522         0.526955
 H        -2.489420         2.087256        -1.217184
 H        -1.114048         1.628247        -1.947059
