19
Iteration:  2297charge 0 multiplicity 1
 C        -2.894208        -0.023166        -2.945167
 C        -2.451733        -0.056606        -1.516759
 C        -3.131045        -1.082991        -0.673780
 C        -1.678237        -1.255713        -0.943139
 O        -0.659369        -1.072124         0.085054
 C         0.062705         0.089028         0.006983
 O         1.273241         0.086737         0.146510
 C        -0.907706         1.335803         0.061681
 C        -2.055103         1.293419        -1.008283
 H        -3.604268        -0.866103        -3.218609
 H        -3.438465         0.858905        -3.031274
 H        -2.009619        -0.122198        -3.632128
 H        -3.545476        -0.670971         0.204807
 H        -3.920548        -1.634135        -1.171502
 H        -1.341190        -1.995406        -1.751501
 H        -1.601325         1.243504         0.995657
 H        -0.325985         2.382686        -0.045385
 H        -3.010658         1.769355        -0.807602
 H        -1.576479         1.787971        -1.871312
