19
Iteration:  4003charge 0 multiplicity 1
 C        -3.029768        -0.066188        -2.902451
 C        -2.457475        -0.006340        -1.537997
 C        -3.159940        -0.996415        -0.546858
 C        -1.730890        -1.230114        -1.147858
 O        -0.575035        -1.169090        -0.228733
 C         0.012909         0.016050         0.131475
 O         1.171548         0.116444         0.576344
 C        -0.716289         1.296782        -0.299435
 C        -2.014023         1.343674        -0.866137
 H        -3.317710        -1.100618        -3.273142
 H        -3.900610         0.622631        -2.883844
 H        -2.404062         0.509137        -3.624668
 H        -3.030548        -0.677592         0.537972
 H        -4.092544        -1.566501        -0.851357
 H        -1.479890        -2.016678        -1.840051
 H        -0.658491         1.879275         0.593617
 H        -0.073937         1.726754        -1.070167
 H        -2.763991         1.687157        -0.270354
 H        -1.898282         2.070427        -1.692008
