19
Iteration:  2623charge 0 multiplicity 1
 C        -3.435353        -0.114394        -2.631906
 C        -2.343788        -0.066035        -1.577048
 C        -2.749527        -0.963902        -0.227214
 C        -1.600996        -1.212651        -1.176466
 O        -0.256266        -1.008206        -0.770462
 C        -0.088576         0.037412         0.042600
 O         0.589577        -0.017187         1.070915
 C        -0.841460         1.409106        -0.200571
 C        -1.701140         1.293073        -1.411014
 H        -4.179570        -0.941625        -2.448720
 H        -3.993210         0.798851        -2.571575
 H        -2.895404        -0.355497        -3.575528
 H        -2.358398        -0.608157         0.640097
 H        -3.592993        -1.645720        -0.253145
 H        -1.514152        -2.062822        -1.823491
 H        -1.298569         1.670972         0.724833
 H        -0.003658         2.163714        -0.312099
 H        -2.516762         2.061716        -1.484283
 H        -1.076973         1.320142        -2.374286
