19
Iteration:   637
 C        -2.966962        -0.090668        -2.952554
 C        -2.466075        -0.046407        -1.521522
 C        -3.129444        -0.955391        -0.441043
 C        -1.777830        -1.280157        -1.037747
 O        -0.499744        -1.165849        -0.330449
 C         0.030135         0.066867         0.095236
 O         1.131079         0.033220         0.585348
 C        -0.761953         1.424058        -0.237027
 C        -2.018910         1.356567        -1.023574
 H        -3.426919        -1.108228        -3.049313
 H        -3.837768         0.566121        -3.000005
 H        -2.406798         0.332199        -3.718830
 H        -3.281827        -0.724577         0.572615
 H        -3.840846        -1.624991        -0.770866
 H        -1.837006        -2.258511        -1.607240
 H        -0.988491         1.777504         0.762851
 H         0.153544         2.123470        -0.550152
 H        -2.781132         1.837757        -0.340971
 H        -1.978420         2.083653        -1.808519
