19
Iteration:  1579charge 0 multiplicity 1
 C        -2.982969        -0.002413        -2.955742
 C        -2.528567        -0.048565        -1.487094
 C        -3.018362        -1.098282        -0.456033
 C        -1.619530        -1.227870        -1.041064
 O        -0.445969        -1.019807        -0.370498
 C        -0.029677         0.106421         0.098816
 O         0.963617         0.053767         0.809000
 C        -0.675882         1.298975        -0.573695
 C        -2.159044         1.288206        -0.854499
 H        -2.732688        -0.923193        -3.443139
 H        -4.062550         0.194490        -2.985336
 H        -2.421704         0.727265        -3.489357
 H        -3.078337        -0.852516         0.593906
 H        -3.774130        -1.902429        -0.577787
 H        -1.506520        -2.099731        -1.706024
 H        -0.382692         2.100904         0.027484
 H        -0.172831         1.348000        -1.493838
 H        -2.825396         1.507104        -0.039128
 H        -2.381872         2.147642        -1.511318
