19
Iteration:  1238
 C        -3.237719        -0.121466        -2.821003
 C        -2.412919        -0.080223        -1.504389
 C        -2.983908        -1.072504        -0.450657
 C        -1.635834        -1.196138        -1.186395
 O        -0.410659        -1.093990        -0.512094
 C        -0.050159         0.097837         0.127662
 O         0.899320         0.081729         0.930590
 C        -0.650408         1.388384        -0.351888
 C        -1.971144         1.339694        -1.093510
 H        -3.253605        -1.268379        -3.130669
 H        -4.161291         0.365728        -2.480317
 H        -2.827150         0.398985        -3.658860
 H        -3.024554        -0.707527         0.676473
 H        -3.849816        -1.784444        -0.691920
 H        -1.591199        -2.018877        -1.935576
 H        -0.567244         2.090189         0.417847
 H         0.248031         1.617216        -1.132520
 H        -2.697446         1.788384        -0.321574
 H        -2.011556         2.033901        -1.920349
