19
Iteration:  1690
 C        -3.177503         0.210701        -2.781572
 C        -2.477722        -0.056019        -1.442548
 C        -2.965684        -1.356211        -0.691630
 C        -1.586236        -1.299018        -1.162174
 O        -0.577811        -1.128862        -0.074007
 C         0.051307         0.128818         0.030993
 O         0.846996         0.281101         0.926888
 C        -0.521537         1.236874        -0.833339
 C        -2.022587         1.267306        -0.853522
 H        -3.469199        -0.639453        -3.325849
 H        -4.164169         0.668329        -2.582824
 H        -2.635164         0.790495        -3.543819
 H        -3.082059        -1.183436         0.442842
 H        -3.716380        -1.979841        -1.271796
 H        -1.167108        -1.928778        -1.932073
 H         0.029037         2.209792        -0.562849
 H         0.018760         1.128996        -1.879154
 H        -2.448964         1.279168         0.166936
 H        -2.501990         2.217572        -1.178750
