19
Iteration:  3845charge 0 multiplicity 1
 C        -3.143110         0.123906        -2.778244
 C        -2.464441         0.038373        -1.430654
 C        -3.057454        -1.146589        -0.607337
 C        -1.650756        -1.180323        -1.135424
 O        -0.523533        -1.191749        -0.246634
 C         0.043388         0.080195        -0.001220
 O         0.830885         0.143717         0.918726
 C        -0.458521         1.217478        -0.813527
 C        -2.015424         1.246791        -0.738753
 H        -3.291623        -0.841589        -3.270005
 H        -4.173423         0.643219        -2.649722
 H        -2.507427         0.733612        -3.451701
 H        -3.363100        -0.800889         0.368808
 H        -3.744270        -1.733951        -1.164168
 H        -1.370776        -1.781172        -2.015218
 H         0.075828         2.148282        -0.427524
 H        -0.135822         1.081030        -1.943175
 H        -2.344624         1.255291         0.352959
 H        -2.335446         2.090194        -1.322252
