19
Iteration:    93
 C        -2.900783        -0.076286        -2.937050
 C        -2.441118        -0.039651        -1.491283
 C        -3.077724        -0.869172        -0.518085
 C        -1.702883        -1.248751        -0.987917
 O        -0.702955        -1.189212         0.019318
 C         0.008654         0.056530         0.007823
 O         1.208649         0.166704         0.069819
 C        -1.007586         1.244342         0.162019
 C        -1.846875         1.326956        -1.152999
 H        -3.420635        -0.925481        -3.394097
 H        -3.406915         0.853241        -3.060219
 H        -1.977962        -0.160300        -3.511448
 H        -3.145490        -0.548613         0.590860
 H        -4.013183        -1.357803        -0.811136
 H        -1.687113        -2.186811        -1.577331
 H        -1.774037         0.908951         1.076340
 H        -0.345668         2.166602         0.464395
 H        -2.727760         1.892885        -0.986655
 H        -1.194958         1.577764        -2.061950
