19
Iteration:  1310charge 0 multiplicity 1
 C        -3.034861         0.111816        -2.812143
 C        -2.464929        -0.068097        -1.426638
 C        -3.110792        -1.212242        -0.566228
 C        -1.603372        -1.299109        -1.147486
 O        -0.467322        -1.155099        -0.225441
 C         0.035777         0.144923        -0.000721
 O         0.826068         0.223012         0.876705
 C        -0.519941         1.263413        -0.769709
 C        -2.109717         1.282930        -0.763779
 H        -3.327558        -0.822031        -3.252837
 H        -3.872269         0.815689        -2.747873
 H        -2.241000         0.635019        -3.481698
 H        -3.120231        -1.197178         0.562229
 H        -3.897910        -1.778981        -1.083028
 H        -1.354563        -1.948152        -1.923592
 H        -0.123459         2.329470        -0.423879
 H        -0.340557         1.206004        -1.920543
 H        -2.537656         1.408774         0.239984
 H        -2.458267         2.166238        -1.380068
