19
Iteration:   535
 C        -3.033837        -0.088146        -3.085299
 C        -2.437727        -0.015061        -1.574244
 C        -3.061522        -0.740505        -0.257671
 C        -1.864717        -1.293027        -0.947125
 O        -0.469569        -1.197696        -0.375163
 C        -0.042096         0.022773         0.115488
 O         1.128114         0.298565         0.339948
 C        -1.040858         1.086335         0.134056
 C        -1.674034         1.240113        -1.191662
 H        -3.063022        -1.116077        -3.486757
 H        -4.020112         0.450278        -3.066337
 H        -2.384384         0.366492        -3.799152
 H        -2.835268        -0.319518         0.749126
 H        -4.082670        -1.306063        -0.199203
 H        -1.972888        -2.266991        -1.342856
 H        -1.811173         0.796899         0.945520
 H        -0.513830         2.215872         0.491832
 H        -2.332674         2.076576        -0.964757
 H        -0.881900         1.527155        -1.947881
