19
Iteration:   716charge 0 multiplicity 1
 C        -3.238348         0.018206        -2.775972
 C        -2.479913         0.024205        -1.522076
 C        -2.988463        -1.134753        -0.525761
 C        -1.630441        -1.217597        -1.208626
 O        -0.554831        -1.112089        -0.294508
 C         0.048017         0.078889         0.061296
 O         0.869833         0.147377         0.942071
 C        -0.489276         1.294544        -0.624147
 C        -1.979569         1.250054        -0.938988
 H        -3.484764        -0.981438        -3.048448
 H        -4.187833         0.535798        -2.730657
 H        -2.589718         0.287649        -3.599334
 H        -2.925908        -0.941364         0.537803
 H        -3.862322        -1.650113        -0.936349
 H        -1.526189        -1.936148        -2.094277
 H        -0.194831         2.085944         0.059758
 H         0.269400         1.309105        -1.527655
 H        -2.515246         1.454315         0.076104
 H        -2.155604         2.097566        -1.522667
