19
Iteration:  4917charge 0 multiplicity 1
 C        -2.751780        -0.044027        -2.916419
 C        -2.449291         0.022543        -1.496951
 C        -3.158145        -0.854523        -0.440315
 C        -1.802375        -1.188462        -0.925651
 O        -0.601245        -1.248104        -0.035440
 C        -0.040402        -0.001615         0.054161
 O         1.185416         0.191067         0.024052
 C        -1.077931         1.116827         0.128855
 C        -1.756492         1.346852        -1.184852
 H        -3.600749        -0.775726        -3.163248
 H        -3.262218         0.996518        -3.059194
 H        -1.790688        -0.152426        -3.440425
 H        -3.241134        -0.543731         0.599238
 H        -3.919894        -1.581989        -0.632657
 H        -1.808201        -2.144252        -1.486708
 H        -1.933325         0.971598         0.681466
 H        -0.780710         2.095474         0.531660
 H        -2.630669         2.057411        -1.201996
 H        -1.160327         1.802401        -2.128126
