19
Iteration:   979charge 0 multiplicity 1
 C        -2.638189        -0.062138        -2.979650
 C        -2.450016        -0.083363        -1.520776
 C        -3.147066        -1.020862        -0.487691
 C        -1.781347        -1.253401        -0.993941
 O        -0.685152        -1.106920        -0.070819
 C         0.009990         0.120246        -0.008079
 O         1.194504         0.122218         0.192088
 C        -0.798092         1.322452        -0.093383
 C        -2.185445         1.292673        -0.821344
 H        -2.499994        -1.062527        -3.529100
 H        -3.656763         0.375211        -3.205261
 H        -1.891367         0.518873        -3.614482
 H        -3.302178        -0.646366         0.549689
 H        -3.990416        -1.737639        -0.914538
 H        -1.724789        -2.138495        -1.546956
 H        -0.983111         1.686441         0.947134
 H        -0.253833         1.978679        -0.635463
 H        -3.157716         1.629181        -0.262877
 H        -2.031239         1.950704        -1.719920
