19
Iteration:  3998charge 0 multiplicity 1
 C        -3.027482        -0.041116        -2.896100
 C        -2.494628        -0.010348        -1.518396
 C        -3.151356        -0.965931        -0.563812
 C        -1.746766        -1.232174        -1.151726
 O        -0.548202        -1.172383        -0.219604
 C         0.060105        -0.004657         0.095638
 O         1.154804         0.123234         0.613375
 C        -0.687094         1.285622        -0.305042
 C        -2.073212         1.316236        -0.899508
 H        -3.222523        -1.032025        -3.210559
 H        -3.987365         0.503695        -2.852272
 H        -2.412840         0.541289        -3.582043
 H        -3.075681        -0.692985         0.447851
 H        -3.950218        -1.578976        -0.887669
 H        -1.516434        -2.095036        -1.803474
 H        -0.637759         1.989283         0.574944
 H        -0.001601         1.686436        -1.185527
 H        -2.839364         1.804574        -0.118536
 H        -1.839025         2.069214        -1.659054
