19
Iteration:    47
 C        -2.898233        -0.209225        -2.966759
 C        -2.455966        -0.090181        -1.565689
 C        -3.203872        -0.621111        -0.383184
 C        -1.857930        -1.285803        -0.968661
 O        -0.545044        -1.113643        -0.375675
 C        -0.005694         0.058888         0.082597
 O         1.218009         0.212095         0.289686
 C        -0.967558         1.170859         0.223651
 C        -1.802474         1.257405        -1.156851
 H        -2.971771        -1.253808        -3.299915
 H        -3.769301         0.321601        -3.132227
 H        -2.113365         0.140076        -3.581614
 H        -3.231181        -0.282547         0.624648
 H        -3.996865        -1.386893        -0.493319
 H        -1.909842        -2.302912        -1.383976
 H        -1.594201         0.843638         1.194878
 H        -0.483628         2.073342         0.395518
 H        -2.567314         1.972418        -1.066252
 H        -1.049219         1.523597        -1.924963
