19
Iteration:  1798charge 0 multiplicity 1
 C        -2.984572         0.060572        -2.960336
 C        -2.529023        -0.072957        -1.512547
 C        -3.033747        -1.208982        -0.638752
 C        -1.679515        -1.331105        -1.033664
 O        -0.657192        -1.090315        -0.027151
 C         0.096883         0.113909         0.017212
 O         1.165893         0.219418         0.521573
 C        -0.687668         1.351112        -0.348265
 C        -2.174866         1.272227        -0.876312
 H        -3.437383        -0.847452        -3.304536
 H        -3.471476         1.027481        -3.242560
 H        -1.960166         0.165604        -3.386722
 H        -3.300673        -1.006521         0.466401
 H        -3.811312        -1.894439        -1.095032
 H        -1.510147        -2.214249        -1.590865
 H        -0.715086         1.902572         0.620715
 H        -0.153131         1.886720        -1.163502
 H        -2.863522         1.254129        -0.117758
 H        -2.230268         2.032737        -1.705073
