19
Iteration:  3062charge 0 multiplicity 1
 C        -3.504101        -0.166873        -2.696367
 C        -2.472444        -0.019635        -1.562610
 C        -2.656767        -0.851413        -0.242802
 C        -1.618384        -1.251470        -1.230897
 O        -0.222645        -0.933338        -0.817419
 C        -0.111282         0.061841         0.178015
 O         0.554150        -0.084655         1.210168
 C        -0.639754         1.337939        -0.335075
 C        -1.769467         1.270373        -1.385675
 H        -3.536316        -1.133028        -3.209893
 H        -4.485528        -0.023928        -2.250008
 H        -3.205799         0.577155        -3.531232
 H        -2.187556        -0.493388         0.698979
 H        -3.550326        -1.450888         0.063503
 H        -1.640333        -2.196884        -1.855195
 H        -1.019844         1.755633         0.670240
 H         0.161734         1.860682        -0.775159
 H        -2.508729         1.979650        -1.230114
 H        -1.293002         1.431108        -2.406731
