19
Iteration:  4218
 C        -3.203362        -0.089925        -2.836541
 C        -2.460840        -0.018915        -1.543450
 C        -3.017558        -0.916331        -0.477701
 C        -1.725460        -1.236909        -1.140453
 O        -0.445609        -1.196268        -0.424576
 C         0.029414         0.056531         0.035648
 O         1.013757         0.081453         0.739300
 C        -0.699607         1.316240        -0.063519
 C        -1.927797         1.349706        -1.156245
 H        -3.966265        -0.931308        -2.770223
 H        -3.904409         0.792003        -2.973043
 H        -2.579801        -0.433284        -3.683585
 H        -3.017168        -0.601315         0.567899
 H        -3.989494        -1.362446        -0.753597
 H        -1.677063        -2.086847        -1.776049
 H        -0.976892         1.557938         0.933292
 H         0.084903         2.166515        -0.332914
 H        -2.663265         2.000285        -0.823753
 H        -1.555971         1.792532        -2.085116
