19
Iteration:  2393charge 0 multiplicity 1
 C        -2.884058        -0.147297        -3.093152
 C        -2.431886        -0.076591        -1.579419
 C        -3.162343        -0.731496        -0.443330
 C        -1.819828        -1.273983        -0.884987
 O        -0.505529        -1.143742        -0.230752
 C         0.005595         0.052229         0.092555
 O         1.204336         0.320656         0.111240
 C        -1.071129         1.111290         0.361799
 C        -1.827518         1.214493        -1.084015
 H        -3.074602        -1.218466        -3.392666
 H        -3.858435         0.329360        -3.225899
 H        -2.020054         0.255089        -3.689323
 H        -3.263398        -0.156341         0.464257
 H        -4.056681        -1.286348        -0.705538
 H        -1.803574        -2.253897        -1.487720
 H        -1.651460         0.763698         1.145990
 H        -0.572326         2.179082         0.563086
 H        -2.651449         1.980446        -1.108492
 H        -1.151582         1.385593        -1.942241
