19
Iteration:  2448charge 0 multiplicity 1
 C        -3.157663        -0.126795        -2.927187
 C        -2.509522        -0.052941        -1.485203
 C        -3.003076        -0.931587        -0.400159
 C        -1.683343        -1.251937        -1.136749
 O        -0.494208        -1.100062        -0.342657
 C        -0.012979         0.044001         0.122032
 O         1.096373         0.191105         0.606598
 C        -0.926151         1.213783        -0.017770
 C        -1.783516         1.327494        -1.252352
 H        -3.866376        -1.000325        -2.911181
 H        -3.738740         0.756706        -3.171801
 H        -2.358481        -0.165133        -3.721146
 H        -2.825568        -0.564449         0.608106
 H        -3.681779        -1.724762        -0.400440
 H        -1.611254        -2.095200        -1.839968
 H        -1.583491         1.302013         0.763989
 H        -0.369395         2.241192         0.036846
 H        -2.583868         2.115144        -0.999203
 H        -1.319899         1.601764        -2.267516
