19
Iteration:  2792
 C        -2.551034        -0.134849        -3.028637
 C        -2.323608        -0.021300        -1.469669
 C        -3.275141        -1.011297        -0.554310
 C        -1.773468        -1.276881        -0.891985
 O        -0.653409        -1.191043         0.091064
 C        -0.062268         0.081727         0.023041
 O         1.105466         0.185897        -0.254611
 C        -0.978912         1.247877         0.301452
 C        -2.001016         1.454906        -0.948240
 H        -3.268659        -0.913366        -3.151482
 H        -2.959425         0.848247        -3.356699
 H        -1.624379        -0.327805        -3.575328
 H        -3.449352        -0.682479         0.443428
 H        -3.914636        -1.870091        -0.995185
 H        -1.625161        -2.052426        -1.563328
 H        -1.534642         1.305867         1.179148
 H        -0.379534         2.109138         0.263054
 H        -2.810904         2.322690        -0.813450
 H        -1.309818         1.845947        -1.850878
