19
Iteration:  2568
 C        -3.572873        -0.243583        -2.597205
 C        -2.432218        -0.065251        -1.556763
 C        -2.694822        -0.841365        -0.317143
 C        -1.525370        -1.237098        -1.268288
 O        -0.192370        -0.987677        -0.832285
 C        -0.093258         0.036353         0.150494
 O         0.487951        -0.082781         1.220796
 C        -0.641746         1.439591        -0.348572
 C        -1.726960         1.305512        -1.313920
 H        -3.582358        -1.301816        -2.925890
 H        -4.498999         0.188371        -2.260150
 H        -3.318401         0.350612        -3.518938
 H        -2.689347        -0.322046         0.571204
 H        -3.597784        -1.420700        -0.422857
 H        -1.526751        -2.174562        -1.733031
 H        -0.891847         2.019353         0.437130
 H         0.307690         1.902164        -0.717076
 H        -2.515488         2.117160        -1.073626
 H        -1.394463         1.620736        -2.401250
