19
Iteration:  4048charge 0 multiplicity 1
 C        -2.976563        -0.007128        -2.956011
 C        -2.499602        -0.038648        -1.449014
 C        -3.143988        -1.092639        -0.509524
 C        -1.710307        -1.194483        -1.052915
 O        -0.648341        -1.042570        -0.128656
 C         0.124283         0.077938        -0.010314
 O         1.247222        -0.044251         0.466038
 C        -0.744770         1.316644        -0.141814
 C        -2.144671         1.330151        -1.048772
 H        -3.679140        -0.863446        -3.135345
 H        -3.417279         0.953651        -3.208612
 H        -2.113265        -0.051508        -3.666251
 H        -3.141479        -0.764301         0.559699
 H        -4.032573        -1.550305        -0.972048
 H        -1.358715        -1.751561        -1.918389
 H        -1.090690         1.426009         0.893964
 H        -0.122324         2.087691        -0.388159
 H        -2.789917         1.816150        -0.486857
 H        -1.910581         1.964303        -1.900315
