19
Iteration:   511
 C        -2.993435        -0.157771        -2.910939
 C        -2.491191        -0.012668        -1.513214
 C        -3.110353        -0.732687        -0.372629
 C        -1.747145        -1.198350        -0.983164
 O        -0.443742        -1.187877        -0.400807
 C         0.003629         0.013154         0.044730
 O         1.154594         0.154128         0.414708
 C        -1.038567         1.187249         0.136676
 C        -1.842569         1.289112        -1.226146
 H        -2.929826        -1.117470        -3.289364
 H        -3.990827         0.265038        -2.984532
 H        -2.304607         0.310176        -3.580013
 H        -3.278596        -0.054627         0.451645
 H        -3.958295        -1.397820        -0.536826
 H        -1.922223        -2.259723        -1.428724
 H        -1.635008         1.025264         1.139297
 H        -0.361016         2.162477         0.221009
 H        -2.512311         2.080450        -1.173235
 H        -1.062850         1.455744        -2.002156
