19
Iteration:  2406
 C        -2.936421        -0.161497        -2.946776
 C        -2.434688        -0.106974        -1.594320
 C        -3.155497        -0.806173        -0.436311
 C        -1.781999        -1.271445        -0.913059
 O        -0.495326        -1.096146        -0.334843
 C        -0.030337         0.119256         0.168248
 O         1.153125         0.252973         0.187225
 C        -1.063911         1.111575         0.227129
 C        -1.755975         1.247372        -1.149114
 H        -3.172778        -1.154240        -3.399432
 H        -3.650607         0.579010        -3.121587
 H        -2.117622         0.204955        -3.653389
 H        -3.249066        -0.155594         0.425811
 H        -3.986030        -1.427779        -0.648561
 H        -1.794127        -2.305778        -1.259451
 H        -1.854000         0.910785         0.991615
 H        -0.549707         2.140886         0.619420
 H        -2.440244         2.015880        -0.989414
 H        -1.023776         1.685919        -1.734710
