19
Iteration:  4768
 C        -3.554351        -0.054822        -2.716092
 C        -2.496779        -0.008623        -1.530602
 C        -2.760279        -0.851408        -0.308409
 C        -1.610710        -1.152361        -1.258612
 O        -0.291048        -1.056933        -0.656835
 C         0.011001        -0.010567         0.111298
 O         0.719029        -0.055086         1.150986
 C        -0.740760         1.305848        -0.253774
 C        -1.698099         1.268371        -1.450408
 H        -4.214964        -0.844260        -2.429627
 H        -4.031286         0.922503        -2.766394
 H        -3.030911        -0.378283        -3.627571
 H        -2.291041        -0.705674         0.660262
 H        -3.628871        -1.533871        -0.322134
 H        -1.562502        -1.921542        -2.066562
 H        -1.388071         1.345989         0.725368
 H        -0.071014         2.225981        -0.193038
 H        -2.375115         2.072007        -1.458556
 H        -1.276482         1.237351        -2.393700
