19
Iteration:  4392charge 0 multiplicity 1
 C        -3.315512         0.009626        -2.847240
 C        -2.436400        -0.036546        -1.620705
 C        -2.803914        -0.804969        -0.247951
 C        -1.701462        -1.306147        -1.136670
 O        -0.407257        -1.105016        -0.601700
 C        -0.062023        -0.008074         0.174508
 O         0.974637        -0.015467         0.765913
 C        -0.960249         1.288840        -0.019208
 C        -1.771041         1.307992        -1.307499
 H        -3.962556        -0.822706        -2.614729
 H        -3.857995         0.962424        -2.907154
 H        -2.857532        -0.167623        -3.811789
 H        -2.462700        -0.368223         0.703626
 H        -3.591534        -1.522601        -0.326933
 H        -1.536997        -2.213036        -1.767401
 H        -1.590712         1.572009         0.727787
 H        -0.134763         2.048958         0.097420
 H        -2.595947         2.045065        -1.314217
 H        -1.101622         1.565066        -2.209625
