19
Iteration:  1166charge 0 multiplicity 1
 C        -3.364265        -0.144297        -2.784921
 C        -2.503132        -0.056347        -1.535146
 C        -2.903079        -0.928115        -0.377739
 C        -1.675803        -1.274486        -1.183715
 O        -0.335336        -1.055364        -0.640654
 C        -0.042679         0.081894         0.130567
 O         0.946668         0.119525         0.851141
 C        -0.920598         1.373343        -0.020632
 C        -1.675930         1.215543        -1.288583
 H        -3.897670        -1.065780        -2.854416
 H        -3.961264         0.779175        -2.734150
 H        -2.706168        -0.141722        -3.717590
 H        -2.870908        -0.515636         0.580452
 H        -3.756999        -1.533990        -0.529593
 H        -1.634624        -2.251449        -1.806582
 H        -1.545770         1.376077         0.949470
 H        -0.237249         2.154665         0.081784
 H        -2.464061         2.031167        -1.338247
 H        -0.899604         1.518785        -2.128464
