19
Iteration:  4336
 C        -3.562948        -0.129502        -2.754949
 C        -2.589758         0.029930        -1.542551
 C        -2.807121        -0.866399        -0.308968
 C        -1.700898        -1.213063        -1.295680
 O        -0.277977        -1.038003        -0.740199
 C        -0.039456         0.040050         0.282698
 O         0.859439        -0.069673         1.036518
 C        -0.776162         1.301237        -0.129877
 C        -1.628107         1.317566        -1.395571
 H        -3.912459        -1.114162        -2.970617
 H        -4.490242         0.436473        -2.547891
 H        -3.061981         0.297978        -3.651177
 H        -2.442162        -0.690213         0.711983
 H        -3.583954        -1.681471        -0.259342
 H        -1.652053        -2.146239        -1.825502
 H        -1.279062         1.826913         0.607338
 H         0.173355         1.856120        -0.297252
 H        -2.127425         2.347781        -1.298094
 H        -0.898227         1.416143        -2.319602
