19
Iteration:  4349
 C        -3.521527        -0.081480        -2.723025
 C        -2.547819         0.038637        -1.528292
 C        -2.809961        -0.923943        -0.302803
 C        -1.667705        -1.133458        -1.187885
 O        -0.301509        -1.012559        -0.782480
 C        -0.026670        -0.030304         0.136734
 O         0.842095         0.010196         1.037760
 C        -0.811205         1.225863        -0.075683
 C        -1.611319         1.249946        -1.390101
 H        -3.961050        -1.136564        -2.751008
 H        -4.345744         0.710264        -2.707743
 H        -2.978638         0.035395        -3.692605
 H        -2.697596        -0.452676         0.680298
 H        -3.772779        -1.374591        -0.448106
 H        -1.760957        -1.957384        -1.914750
 H        -1.323709         1.366750         0.827678
 H        -0.083191         2.082077        -0.159560
 H        -2.163304         2.181895        -1.616968
 H        -0.828253         1.025894        -2.295866
