19
Iteration:  1463charge 0 multiplicity 1
 C        -2.888437        -0.077936        -2.945235
 C        -2.505748        -0.094324        -1.458406
 C        -3.162120        -1.094497        -0.640743
 C        -1.674673        -1.263782        -1.049359
 O        -0.557084        -1.105887        -0.165506
 C         0.032532         0.139689         0.070923
 O         1.162067         0.167987         0.497009
 C        -0.734122         1.359119        -0.298302
 C        -2.157763         1.263412        -0.829436
 H        -3.249918        -1.035476        -3.266241
 H        -3.622621         0.715339        -3.067483
 H        -1.952061         0.040306        -3.564452
 H        -3.539114        -0.901188         0.398533
 H        -4.053803        -1.636156        -1.091636
 H        -1.300100        -1.926099        -1.838303
 H        -0.678778         1.988200         0.718891
 H        -0.168713         2.107279        -1.021522
 H        -2.858073         1.425134        -0.056748
 H        -2.392630         2.033895        -1.552214
