19
Iteration:  3501
 C        -3.169590         0.165165        -2.760274
 C        -2.501189         0.015052        -1.378332
 C        -2.880943        -1.180828        -0.474940
 C        -1.664665        -1.238401        -1.306721
 O        -0.525937        -1.173267        -0.437768
 C        -0.028392         0.057329         0.044049
 O         0.649215         0.151332         1.077309
 C        -0.402709         1.229795        -0.841297
 C        -1.931231         1.309853        -0.755908
 H        -3.260839        -0.861761        -3.237842
 H        -4.163848         0.623893        -2.729595
 H        -2.382863         0.700583        -3.415968
 H        -2.605960        -1.048410         0.566958
 H        -3.714778        -1.710086        -0.806416
 H        -1.518959        -1.993697        -2.076467
 H         0.163224         2.097705        -0.600698
 H        -0.158995         1.021779        -1.962315
 H        -2.329133         1.697673         0.310141
 H        -2.293790         2.112658        -1.431277
