19
Iteration:  2644
 C        -3.433748        -0.121540        -2.759643
 C        -2.525951        -0.014232        -1.519196
 C        -2.757778        -0.860960        -0.314300
 C        -1.619606        -1.328252        -1.185124
 O        -0.267643        -1.032486        -0.730791
 C        -0.083906         0.092024         0.157539
 O         0.806912         0.062970         1.003715
 C        -0.876695         1.308404        -0.110390
 C        -1.696697         1.245209        -1.418921
 H        -4.184762        -0.978129        -2.748720
 H        -4.017897         0.807709        -2.727281
 H        -2.734890        -0.260447        -3.637526
 H        -2.554372        -0.528090         0.628920
 H        -3.606076        -1.522336        -0.447011
 H        -1.612969        -2.280558        -1.679623
 H        -1.480416         1.453560         0.878465
 H        -0.143567         2.190574        -0.021644
 H        -2.381998         2.070522        -1.274404
 H        -1.199116         1.300080        -2.388750
