19
Iteration:  4507
 C        -2.865871        -0.057679        -2.895039
 C        -2.362861        -0.028882        -1.493990
 C        -3.175354        -0.829226        -0.565637
 C        -1.848458        -1.210907        -0.851441
 O        -0.529393        -1.166401        -0.103545
 C         0.045555         0.023464        -0.017488
 O         1.206874         0.075053         0.059502
 C        -1.122802         1.210392         0.182856
 C        -1.837272         1.300095        -1.075954
 H        -2.978083        -1.099144        -3.281041
 H        -3.775707         0.572599        -3.090013
 H        -2.145286         0.516278        -3.628241
 H        -3.441624        -0.215361         0.333382
 H        -3.841934        -1.433372        -1.185449
 H        -1.927512        -2.126604        -1.383353
 H        -1.723722         0.900195         1.009597
 H        -0.665190         2.056135         0.519433
 H        -2.505815         2.218141        -1.029286
 H        -1.047389         1.765932        -1.814975
