19
Iteration:  4012charge 0 multiplicity 1
 C        -3.045421        -0.040672        -2.958445
 C        -2.409064        -0.015711        -1.511959
 C        -3.092951        -1.044742        -0.522428
 C        -1.695368        -1.229913        -1.082806
 O        -0.622821        -1.164181        -0.229724
 C        -0.025459         0.073652         0.146915
 O         1.125453         0.063334         0.489344
 C        -0.654159         1.326576        -0.195832
 C        -2.026141         1.358012        -0.947044
 H        -3.433457        -1.023752        -3.277247
 H        -3.920297         0.629238        -3.033735
 H        -2.313284         0.115372        -3.682902
 H        -3.144166        -0.754820         0.555413
 H        -4.068584        -1.526233        -0.787916
 H        -1.528629        -1.886727        -1.921585
 H        -0.635879         1.937145         0.704815
 H         0.262430         1.920946        -0.755907
 H        -2.868767         1.559015        -0.232421
 H        -2.229845         2.097732        -1.709557
