19
Iteration:  2057
 C        -3.204623        -0.201230        -2.824270
 C        -2.541161        -0.033457        -1.494505
 C        -2.808585        -0.940283        -0.272685
 C        -1.629698        -1.166521        -1.206462
 O        -0.346501        -1.116532        -0.603934
 C        -0.051371         0.042533         0.070749
 O         0.764625         0.016970         0.995362
 C        -0.662325         1.347550        -0.410966
 C        -2.020255         1.382003        -1.085701
 H        -3.079351        -1.260123        -3.306577
 H        -4.234739         0.178242        -2.987107
 H        -2.551502         0.480823        -3.520209
 H        -2.666381        -0.452098         0.709568
 H        -3.718271        -1.571539        -0.314485
 H        -1.522206        -1.962112        -1.873136
 H        -0.748357         1.943702         0.504061
 H         0.205029         1.754305        -1.106622
 H        -2.788437         2.013237        -0.524006
 H        -1.798808         1.882643        -2.000639
