19
Iteration:  3938charge 0 multiplicity 1
 C        -3.093967         0.093121        -2.783716
 C        -2.528603         0.005162        -1.407224
 C        -3.019710        -1.122822        -0.572074
 C        -1.651661        -1.209683        -1.216214
 O        -0.587850        -1.099013        -0.258062
 C         0.021544         0.042036         0.019279
 O         0.859645         0.156771         0.885304
 C        -0.471794         1.191270        -0.816602
 C        -1.985923         1.246970        -0.704884
 H        -2.995204        -0.886723        -3.384228
 H        -4.162980         0.466814        -2.840921
 H        -2.403013         0.857125        -3.351033
 H        -3.040681        -0.969120         0.546717
 H        -3.940157        -1.614487        -1.041667
 H        -1.435991        -1.880760        -2.038998
 H        -0.106207         2.102633        -0.389937
 H        -0.127784         1.165089        -1.771313
 H        -2.242143         1.241808         0.326961
 H        -2.365205         2.226494        -1.148378
