19
Iteration:  4688
 C        -3.500574        -0.091150        -2.914066
 C        -2.533665        -0.037546        -1.542989
 C        -2.823515        -0.866670        -0.236125
 C        -1.691475        -1.124832        -1.168937
 O        -0.246326        -1.085477        -0.688030
 C        -0.092731        -0.003349         0.254954
 O         0.891778        -0.042943         0.998202
 C        -0.759453         1.271809        -0.144975
 C        -1.709087         1.311256        -1.404170
 H        -3.623002        -1.167500        -3.182472
 H        -4.511237         0.261090        -2.635277
 H        -3.091922         0.479109        -3.694182
 H        -2.870785        -0.258283         0.691510
 H        -3.749145        -1.436150        -0.317377
 H        -1.840603        -2.069802        -1.644307
 H        -1.330527         1.664428         0.761524
 H         0.201905         1.924568        -0.344554
 H        -2.271435         2.283883        -1.334120
 H        -1.131100         1.439142        -2.234822
