19
Iteration:  4030charge 0 multiplicity 1
 C        -3.003650        -0.052167        -2.925137
 C        -2.544270        -0.000371        -1.545044
 C        -3.031324        -1.027838        -0.547194
 C        -1.672110        -1.255072        -1.088889
 O        -0.614497        -1.120626        -0.132985
 C         0.040116         0.065836        -0.011095
 O         1.140932        -0.090441         0.475006
 C        -0.743358         1.477714        -0.178476
 C        -2.047236         1.369773        -0.905994
 H        -3.613738        -0.924162        -3.133112
 H        -3.603497         0.850830        -3.133463
 H        -2.136027        -0.011098        -3.693466
 H        -3.131445        -0.798565         0.468083
 H        -3.662979        -1.834484        -0.825081
 H        -1.516976        -2.231109        -1.605104
 H        -0.885300         1.825671         0.878107
 H        -0.102780         2.262492        -0.659255
 H        -3.012189         1.853248        -0.382794
 H        -1.958629         2.029209        -1.811104
