19
Iteration:  4085charge 0 multiplicity 1
 C        -2.955612        -0.008849        -2.966279
 C        -2.449810        -0.026175        -1.547564
 C        -3.158284        -0.935452        -0.512032
 C        -1.758680        -1.323031        -0.972970
 O        -0.534869        -1.203608        -0.151294
 C        -0.014661         0.028222         0.013966
 O         1.178344         0.108468         0.273621
 C        -0.861216         1.327644         0.116689
 C        -1.931416         1.345423        -1.039158
 H        -3.485331        -0.934600        -3.177455
 H        -3.845972         0.679780        -2.935893
 H        -2.235355         0.183288        -3.870182
 H        -3.288592        -0.620638         0.504575
 H        -4.066416        -1.372742        -0.872338
 H        -1.471494        -2.072591        -1.747771
 H        -1.215545         1.481566         1.154836
 H        -0.106685         2.173863         0.006768
 H        -2.876520         2.015360        -1.033768
 H        -1.366017         1.675431        -1.947735
