19
Iteration:   412charge 0 multiplicity 1
 C        -3.224643        -0.026400        -2.857428
 C        -2.502321        -0.126573        -1.540317
 C        -3.003162        -1.013041        -0.383821
 C        -1.672739        -1.246337        -1.133647
 O        -0.512084        -1.082506        -0.371987
 C         0.023716         0.094107         0.066123
 O         0.982072         0.075089         0.788583
 C        -0.645633         1.375466        -0.257805
 C        -1.902240         1.224195        -1.164443
 H        -3.775576        -0.855543        -3.199590
 H        -3.968457         0.775904        -2.705508
 H        -2.423321         0.200141        -3.613068
 H        -3.026814        -0.649995         0.615663
 H        -3.874094        -1.444259        -0.729040
 H        -1.646542        -2.212909        -1.823972
 H        -0.825171         1.880645         0.812277
 H         0.239301         2.060961        -0.787664
 H        -2.700699         1.782624        -0.705024
 H        -1.617624         1.784441        -2.116743
