19
Iteration:  1452
 C        -2.845990        -0.085419        -2.978892
 C        -2.484202        -0.019077        -1.508051
 C        -3.127707        -1.094124        -0.598348
 C        -1.673870        -1.284538        -0.995763
 O        -0.575014        -1.123660        -0.186811
 C         0.037235         0.095937         0.026776
 O         1.193106         0.145947         0.513578
 C        -0.768773         1.413254        -0.296768
 C        -2.272443         1.298630        -0.786152
 H        -3.182456        -1.071295        -3.187528
 H        -3.675230         0.496676        -3.384624
 H        -1.991554         0.307155        -3.610744
 H        -3.247304        -0.764744         0.476616
 H        -3.747615        -1.832983        -1.222543
 H        -1.617599        -2.124992        -1.700926
 H        -0.786159         2.217489         0.614309
 H         0.128544         1.595925        -1.074897
 H        -2.849517         1.371795         0.081006
 H        -2.513774         2.140202        -1.415871
