19
Iteration:  4742charge 0 multiplicity 1
 C        -3.474198        -0.086348        -2.635809
 C        -2.408446         0.021992        -1.500417
 C        -2.640335        -0.830264        -0.272923
 C        -1.616469        -1.266539        -1.202807
 O        -0.259708        -1.096355        -0.773136
 C        -0.226312        -0.008630         0.139822
 O         0.611446        -0.066667         1.000238
 C        -0.855218         1.346686        -0.150131
 C        -1.608416         1.370952        -1.473219
 H        -4.106744        -0.964486        -2.367428
 H        -4.013170         0.861493        -2.731964
 H        -2.918506        -0.281086        -3.517233
 H        -2.205460        -0.650930         0.728444
 H        -3.496600        -1.487404        -0.209414
 H        -1.761904        -2.125144        -1.852016
 H        -1.287046         1.769080         0.753385
 H         0.137534         1.885144        -0.281947
 H        -2.329993         2.278538        -1.520989
 H        -0.923427         1.331988        -2.341094
