19
Iteration:  1152charge 0 multiplicity 1
 C        -3.295871        -0.152976        -2.857797
 C        -2.463560        -0.045725        -1.561028
 C        -2.921680        -0.889110        -0.273489
 C        -1.708940        -1.222906        -1.102859
 O        -0.317503        -1.034977        -0.686257
 C        -0.016346         0.089703         0.147882
 O         0.979778         0.110006         0.803023
 C        -1.008657         1.197764         0.081808
 C        -1.724717         1.296966        -1.367148
 H        -3.861001        -1.162657        -2.877524
 H        -4.148724         0.516883        -2.979890
 H        -2.712284         0.031165        -3.692889
 H        -2.608199        -0.495577         0.772374
 H        -3.874806        -1.496636        -0.300198
 H        -1.709823        -2.044160        -1.821664
 H        -1.788449         1.196105         0.940974
 H        -0.374186         2.241769         0.140486
 H        -2.141666         2.209204        -1.621456
 H        -0.916952         1.109013        -2.089636
