19
Iteration:  2380charge 0 multiplicity 1
 C        -2.795548        -0.151553        -3.069355
 C        -2.425680        -0.060257        -1.570177
 C        -3.241589        -0.751042        -0.443869
 C        -1.789120        -1.232730        -0.895592
 O        -0.543054        -1.271665        -0.160677
 C         0.022875         0.138296         0.030873
 O         1.226383         0.304508         0.053945
 C        -1.119884         1.124013         0.271493
 C        -1.835602         1.244862        -1.023930
 H        -2.862187        -1.224015        -3.286043
 H        -3.830016         0.339507        -3.322257
 H        -2.209253         0.364097        -3.857638
 H        -3.323579        -0.266770         0.537962
 H        -3.941900        -1.637353        -0.566906
 H        -1.824243        -2.227549        -1.454438
 H        -1.734059         0.932614         1.096860
 H        -0.632540         2.064295         0.571038
 H        -2.640633         2.142885        -0.944711
 H        -0.938331         1.835758        -1.521006
