19
Iteration:   696charge 0 multiplicity 1
 C        -3.166796        -0.070054        -2.883611
 C        -2.492538        -0.030956        -1.515951
 C        -2.943131        -1.020948        -0.488729
 C        -1.628447        -1.247804        -1.112805
 O        -0.482425        -1.154836        -0.300947
 C        -0.021739         0.066681         0.103834
 O         0.929585        -0.019048         0.825317
 C        -0.582264         1.414034        -0.528146
 C        -2.079114         1.418254        -0.941707
 H        -3.371644        -0.969266        -3.422637
 H        -4.090398         0.480210        -2.582520
 H        -2.536704         0.471386        -3.696023
 H        -2.875662        -0.700700         0.621097
 H        -3.782741        -1.765101        -0.737028
 H        -1.451104        -2.073471        -1.849135
 H        -0.278258         2.229214         0.143174
 H        -0.024264         1.458688        -1.388237
 H        -2.781182         1.799974        -0.089452
 H        -2.219487         2.080797        -1.821350
