19
Iteration:   908charge 0 multiplicity 1
 C        -2.967863        -0.041877        -3.021083
 C        -2.506357        -0.048371        -1.562740
 C        -3.075312        -1.123130        -0.580464
 C        -1.655076        -1.208956        -1.044950
 O        -0.676784        -1.072959         0.017277
 C        -0.001383         0.075329         0.101515
 O         1.178584         0.064715         0.330741
 C        -0.711458         1.453230        -0.204420
 C        -2.066873         1.255406        -0.853479
 H        -3.316670        -0.971786        -3.447732
 H        -3.644524         0.775302        -3.259345
 H        -2.122486         0.075358        -3.684429
 H        -3.254254        -1.051454         0.457854
 H        -3.734843        -1.745994        -1.058515
 H        -1.335961        -2.134584        -1.678433
 H        -0.890609         1.728767         0.788030
 H        -0.111095         2.156958        -0.750476
 H        -2.769586         1.441321        -0.102220
 H        -2.261126         2.105431        -1.688587
