19
Iteration:  4511charge 0 multiplicity 1
 C        -2.857675        -0.085653        -2.911619
 C        -2.345232        -0.020551        -1.490696
 C        -3.200482        -0.828165        -0.547793
 C        -1.860519        -1.209231        -0.857750
 O        -0.547211        -1.155663        -0.136387
 C         0.033115         0.040674         0.000118
 O         1.239967         0.077701         0.033523
 C        -1.137727         1.202903         0.228233
 C        -1.818153         1.299471        -1.075473
 H        -3.054192        -1.057321        -3.292290
 H        -3.692127         0.580788        -3.045095
 H        -2.073120         0.343858        -3.581380
 H        -3.488245        -0.052212         0.172605
 H        -3.871430        -1.428947        -1.149195
 H        -1.822441        -2.167483        -1.471230
 H        -1.840637         0.909135         1.168813
 H        -0.615881         2.197284         0.584290
 H        -2.552832         2.142284        -1.041523
 H        -1.050133         1.567988        -1.696658
