19
Iteration:  2287charge 0 multiplicity 1
 C        -2.892583        -0.015608        -2.941403
 C        -2.404640        -0.112670        -1.506557
 C        -3.167342        -1.080065        -0.629949
 C        -1.645242        -1.258898        -0.937354
 O        -0.686384        -1.109617         0.006851
 C         0.059563         0.162081         0.018073
 O         1.251043         0.089378         0.210529
 C        -0.870612         1.290208         0.051281
 C        -2.091316         1.357882        -1.090159
 H        -3.594371        -0.905375        -3.074411
 H        -3.437655         0.885747        -3.112467
 H        -2.195415         0.006473        -3.823837
 H        -3.469184        -0.641896         0.288846
 H        -3.777230        -1.880148        -1.026879
 H        -1.378878        -2.042082        -1.740400
 H        -1.277240         1.239902         1.179220
 H        -0.177908         2.220597         0.112697
 H        -2.907821         2.035493        -0.611774
 H        -1.891384         1.873867        -2.084924
