19
Iteration:    42charge 0 multiplicity 1
 C        -2.892903        -0.221380        -2.950620
 C        -2.470623        -0.064912        -1.549358
 C        -3.227120        -0.673189        -0.382541
 C        -1.881333        -1.272719        -0.964089
 O        -0.536018        -1.060353        -0.410065
 C         0.029473         0.096195         0.138747
 O         1.241432         0.187823         0.318904
 C        -0.991259         1.124988         0.171630
 C        -1.765221         1.184363        -1.150588
 H        -3.101025        -1.285136        -3.183990
 H        -3.912633         0.275509        -3.280254
 H        -2.135398         0.315729        -3.639749
 H        -3.130554        -0.201320         0.628178
 H        -4.111265        -1.280944        -0.518640
 H        -1.946791        -2.210136        -1.510441
 H        -1.548070         0.966922         1.020384
 H        -0.530129         2.141291         0.441917
 H        -2.529963         2.111290        -1.141484
 H        -1.169399         1.635502        -1.973954
