19
Iteration:  2882
 C        -2.881488        -0.140837        -2.967266
 C        -2.410568        -0.035359        -1.549164
 C        -3.152348        -0.884190        -0.503411
 C        -1.772038        -1.266931        -0.958710
 O        -0.646183        -1.170642        -0.091806
 C         0.038635         0.132654         0.022897
 O         1.218014         0.154043         0.177051
 C        -1.015955         1.239819         0.161561
 C        -1.857685         1.319254        -1.082776
 H        -2.782086        -1.207507        -3.355264
 H        -3.964478         0.184043        -3.169173
 H        -2.295037         0.482478        -3.644717
 H        -3.258743        -0.482699         0.543608
 H        -3.939475        -1.486845        -0.881178
 H        -1.576746        -2.051548        -1.798470
 H        -1.538771         1.036190         1.036196
 H        -0.463256         2.157958         0.506396
 H        -2.693214         2.180339        -0.875915
 H        -1.241131         1.666427        -2.055047
