19
Iteration:   626
 C        -3.024287        -0.082642        -2.897206
 C        -2.443811        -0.031574        -1.513076
 C        -3.078805        -0.941520        -0.502700
 C        -1.700264        -1.249621        -0.993896
 O        -0.539640        -1.131837        -0.261598
 C         0.015621         0.076930         0.090476
 O         1.157459        -0.025067         0.525840
 C        -0.765634         1.338118        -0.157336
 C        -2.097225         1.394976        -1.094589
 H        -3.460376        -1.038324        -3.313425
 H        -3.752347         0.713932        -2.924727
 H        -2.218013         0.029632        -3.601735
 H        -3.130475        -0.605750         0.505393
 H        -3.824916        -1.562565        -0.841500
 H        -1.528785        -2.122051        -1.685603
 H        -1.069563         1.729312         0.799978
 H        -0.072758         2.176674        -0.632434
 H        -3.023548         1.772599        -0.561404
 H        -1.890249         1.941181        -1.997941
