19
Iteration:  1812charge 0 multiplicity 1
 C        -2.974369         0.032633        -2.961780
 C        -2.501218        -0.148421        -1.522999
 C        -3.113466        -1.188006        -0.666290
 C        -1.597272        -1.234187        -1.074586
 O        -0.694946        -1.009443         0.057244
 C         0.054289         0.127930         0.054579
 O         1.208886         0.144941         0.498441
 C        -0.716405         1.337332        -0.411099
 C        -2.160517         1.195433        -0.847841
 H        -3.625033        -0.731077        -3.280652
 H        -3.576061         0.904781        -3.003804
 H        -2.235628         0.115545        -3.786927
 H        -3.209292        -1.007560         0.348484
 H        -3.787583        -1.885450        -1.102036
 H        -1.066298        -1.856812        -1.796574
 H        -0.734680         1.901785         0.558501
 H         0.084788         2.033138        -1.038485
 H        -2.767001         1.483767         0.020644
 H        -2.423502         1.986504        -1.488797
