19
Iteration:  4687
 C        -3.495915        -0.091034        -2.910515
 C        -2.525707        -0.037190        -1.538387
 C        -2.826898        -0.869036        -0.239199
 C        -1.697806        -1.131160        -1.169666
 O        -0.253571        -1.090585        -0.685108
 C        -0.095054        -0.001690         0.258425
 O         0.896271        -0.034639         0.991145
 C        -0.759615         1.266948        -0.135538
 C        -1.706671         1.313800        -1.408973
 H        -3.622902        -1.158984        -3.216478
 H        -4.510214         0.235284        -2.642100
 H        -3.080887         0.490505        -3.707436
 H        -2.842209        -0.260918         0.686455
 H        -3.737588        -1.459281        -0.305938
 H        -1.874599        -2.040226        -1.653433
 H        -1.321671         1.674213         0.723450
 H         0.185583         1.899080        -0.344753
 H        -2.285016         2.299970        -1.311955
 H        -1.118454         1.495949        -2.244646
