19
Iteration:  3356
 C        -2.888007         0.036349        -3.000210
 C        -2.520192        -0.059289        -1.530403
 C        -3.207453        -1.004277        -0.560758
 C        -1.710909        -1.274150        -1.004977
 O        -0.622953        -1.144010        -0.148692
 C         0.134504         0.067920        -0.057315
 O         1.154988         0.054137         0.537267
 C        -0.722303         1.412317        -0.291683
 C        -2.092253         1.235410        -0.840553
 H        -3.090095        -0.949506        -3.389235
 H        -3.806252         0.636665        -3.010202
 H        -2.094876         0.581295        -3.622139
 H        -3.367012        -0.679890         0.503868
 H        -3.893745        -1.776972        -0.946196
 H        -1.557296        -2.047295        -1.803789
 H        -0.681635         1.892362         0.771448
 H        -0.124245         2.115051        -0.829231
 H        -2.734331         1.238533         0.151642
 H        -2.305987         2.037457        -1.460539
