19
Iteration:  2533
 C        -3.398085        -0.130799        -2.702363
 C        -2.475519        -0.003105        -1.477662
 C        -2.681558        -0.965689        -0.235917
 C        -1.537306        -1.192322        -1.239190
 O        -0.264319        -1.097009        -0.682918
 C        -0.110369         0.036882         0.134292
 O         0.585885        -0.070941         1.122933
 C        -0.650597         1.446605        -0.416312
 C        -1.858365         1.330446        -1.339563
 H        -3.473650        -1.091885        -3.261396
 H        -4.533865        -0.050047        -2.580668
 H        -2.971688         0.581457        -3.413764
 H        -2.506766        -0.400935         0.698658
 H        -3.511533        -1.594307        -0.263138
 H        -1.642741        -2.105490        -1.843025
 H        -1.001762         1.966799         0.559836
 H         0.015201         2.057376        -1.044568
 H        -2.683560         2.026433        -1.007804
 H        -1.517290         1.613840        -2.404459
