19
Iteration:  2737
 C        -2.813066        -0.067701        -3.064560
 C        -2.462634        -0.048004        -1.543697
 C        -3.110128        -0.967695        -0.416626
 C        -1.748441        -1.257373        -0.896733
 O        -0.605036        -1.121354        -0.059414
 C         0.013555         0.129315         0.022914
 O         1.222240         0.105587         0.116907
 C        -1.012746         1.234330         0.177406
 C        -1.942676         1.340888        -1.133226
 H        -2.880363        -1.012652        -3.551102
 H        -3.784702         0.391968        -3.275013
 H        -2.012385         0.408489        -3.639176
 H        -3.243499        -0.487497         0.564313
 H        -3.991547        -1.614547        -0.747290
 H        -1.767093        -2.160315        -1.435282
 H        -1.717620         0.980950         0.887229
 H        -0.629555         2.174165         0.429503
 H        -2.782246         2.022557        -0.693468
 H        -1.369949         1.770251        -2.059037
