19
Iteration:  4593
 C        -2.972274        -0.073590        -3.008916
 C        -2.439506        -0.022291        -1.549625
 C        -3.158779        -0.871889        -0.461022
 C        -1.823947        -1.280648        -0.965653
 O        -0.585306        -1.134395        -0.241469
 C         0.034584         0.118366         0.054905
 O         1.245081         0.084231         0.318458
 C        -0.931365         1.220954         0.154680
 C        -1.848906         1.315305        -1.119218
 H        -3.797403        -0.810558        -3.044748
 H        -3.426186         0.927713        -3.205243
 H        -2.183445        -0.233564        -3.753598
 H        -3.359473        -0.427287         0.528175
 H        -4.018105        -1.519486        -0.634626
 H        -1.703260        -2.251439        -1.412094
 H        -1.444532         0.921373         1.051528
 H        -0.382614         2.117518         0.272456
 H        -2.568608         2.135236        -1.100688
 H        -1.207755         1.654069        -2.049405
