19
Iteration:  2973
 C        -3.456605        -0.100151        -2.707000
 C        -2.516211        -0.034140        -1.550950
 C        -2.707992        -0.900832        -0.325978
 C        -1.599725        -1.223265        -1.261362
 O        -0.289226        -1.002250        -0.584376
 C        -0.061066         0.075179         0.226304
 O         0.841283        -0.084112         1.020994
 C        -0.885484         1.327760        -0.183143
 C        -1.784865         1.261752        -1.507608
 H        -4.213116        -0.911715        -2.685621
 H        -4.022215         0.814653        -2.856375
 H        -2.826940        -0.343348        -3.658356
 H        -2.443349        -0.464528         0.662393
 H        -3.656230        -1.437562        -0.268924
 H        -1.559283        -2.020436        -1.915402
 H        -1.490821         1.765413         0.687699
 H        -0.135022         2.044308        -0.294233
 H        -2.599175         2.217617        -1.466740
 H        -0.963559         1.422622        -2.317370
