19
Iteration:  3506charge 0 multiplicity 1
 C        -3.133915         0.121542        -2.759534
 C        -2.484878         0.033971        -1.357933
 C        -2.922733        -1.149559        -0.477633
 C        -1.637708        -1.213411        -1.291304
 O        -0.517533        -1.165175        -0.449436
 C        -0.012367         0.030979         0.047029
 O         0.646428         0.128982         1.049102
 C        -0.398387         1.272396        -0.822826
 C        -1.947679         1.284536        -0.776549
 H        -3.282830        -0.848741        -3.185203
 H        -4.154589         0.562757        -2.733965
 H        -2.543846         0.679240        -3.432041
 H        -2.744650        -1.039337         0.601005
 H        -3.873966        -1.753046        -0.694824
 H        -1.549506        -1.958398        -2.106787
 H         0.202176         2.157680        -0.447578
 H        -0.225580         1.113239        -1.861632
 H        -2.364215         1.566968         0.132923
 H        -2.307288         2.118321        -1.435595
