19
Iteration:   308
 C        -3.512083        -0.000166        -2.718782
 C        -2.530148        -0.077416        -1.502918
 C        -2.826157        -0.971965        -0.295881
 C        -1.595577        -1.204520        -1.177240
 O        -0.313641        -0.971860        -0.628037
 C        -0.014323         0.060910         0.148940
 O         0.881024         0.017406         0.982650
 C        -0.870480         1.254044        -0.205103
 C        -1.640107         1.207532        -1.470337
 H        -4.057678        -0.994208        -2.853434
 H        -4.128100         0.901916        -2.600036
 H        -2.947022         0.177128        -3.638217
 H        -2.833981        -0.532271         0.770307
 H        -3.837199        -1.423705        -0.570299
 H        -1.477081        -2.121792        -1.806483
 H        -1.746708         1.263101         0.789634
 H        -0.242408         2.105600        -0.116284
 H        -2.263795         2.117870        -1.600520
 H        -0.893960         1.142584        -2.239477
