19
Iteration:  1316
 C        -3.012379         0.141861        -2.796773
 C        -2.448356        -0.068987        -1.404098
 C        -3.111248        -1.255946        -0.611540
 C        -1.631879        -1.267179        -1.110979
 O        -0.495480        -1.130778        -0.191841
 C         0.038476         0.087894        -0.041372
 O         0.845175         0.236202         0.899358
 C        -0.520685         1.324807        -0.836921
 C        -2.109111         1.240283        -0.766726
 H        -3.499704        -0.791317        -3.167388
 H        -3.844774         0.853124        -2.619384
 H        -2.268120         0.638167        -3.360032
 H        -3.194434        -1.212439         0.438841
 H        -3.784155        -1.883608        -1.181378
 H        -1.303322        -1.932366        -1.975897
 H        -0.047240         2.198991        -0.438476
 H        -0.348741         1.141116        -1.905569
 H        -2.521048         1.401289         0.238170
 H        -2.469013         2.055500        -1.359515
