19
Iteration:  3440
 C        -3.238715         0.295911        -2.709600
 C        -2.469839        -0.089267        -1.463112
 C        -2.988077        -1.278382        -0.692908
 C        -1.642543        -1.316360        -1.227488
 O        -0.587690        -1.143708        -0.240541
 C        -0.041933         0.067478         0.012205
 O         0.686642         0.309474         0.998529
 C        -0.267504         1.254192        -0.931127
 C        -1.834686         1.192319        -0.654320
 H        -3.642854        -0.594067        -3.190437
 H        -4.151903         0.924568        -2.510892
 H        -2.710540         0.784076        -3.469161
 H        -3.038284        -1.314520         0.439218
 H        -3.934261        -1.699552        -1.098904
 H        -1.237955        -2.085929        -1.974575
 H         0.304255         2.102957        -0.518766
 H        -0.045291         1.009975        -1.960071
 H        -2.085900         1.244394         0.323331
 H        -2.474113         2.054399        -1.004443
