19
Iteration:  2949
 C        -3.350614        -0.092435        -2.860295
 C        -2.460054        -0.058951        -1.544030
 C        -2.936051        -0.892750        -0.355214
 C        -1.648083        -1.270700        -1.071662
 O        -0.336565        -1.103268        -0.569358
 C         0.024670         0.093515         0.041141
 O         0.889446         0.094082         0.911835
 C        -0.837080         1.269395        -0.110136
 C        -1.747117         1.296266        -1.325356
 H        -4.107774        -0.947357        -2.845376
 H        -4.037565         0.793520        -2.849950
 H        -2.818895        -0.199446        -3.845910
 H        -2.896761        -0.483174         0.614485
 H        -3.788503        -1.599522        -0.428395
 H        -1.637849        -2.154233        -1.758021
 H        -1.447223         1.236329         0.773306
 H        -0.264368         2.189539        -0.012614
 H        -2.542205         2.097805        -1.075871
 H        -1.068236         1.666862        -2.193383
