19
Iteration:  4490charge 0 multiplicity 1
 C        -2.917425        -0.003426        -3.015877
 C        -2.408443         0.009744        -1.494533
 C        -3.184852        -0.841289        -0.456686
 C        -1.752358        -1.288855        -0.939667
 O        -0.622616        -1.232457        -0.062663
 C         0.028073         0.037500         0.059993
 O         1.180166         0.139051         0.136220
 C        -0.927268         1.148362         0.117560
 C        -1.861883         1.377973        -1.157368
 H        -2.885761        -0.973007        -3.484623
 H        -3.942675         0.354211        -2.996117
 H        -2.301200         0.629667        -3.617315
 H        -3.291057        -0.355240         0.553532
 H        -3.950266        -1.509575        -0.840126
 H        -1.500001        -2.151660        -1.650461
 H        -1.673304         0.995825         1.034302
 H        -0.285214         2.091323         0.447341
 H        -2.725044         1.976001        -0.858036
 H        -1.296929         1.739630        -1.980820
