19
Iteration:  1776charge 0 multiplicity 1
 C        -2.862978        -0.024697        -2.988943
 C        -2.436042        -0.077316        -1.429639
 C        -3.183961        -1.163993        -0.558666
 C        -1.674632        -1.238029        -1.011268
 O        -0.490308        -1.132320        -0.194089
 C        -0.050524         0.100597         0.092016
 O         1.076676         0.162868         0.517120
 C        -0.682690         1.385196        -0.396110
 C        -2.193025         1.278203        -0.829212
 H        -3.220102        -0.972044        -3.366809
 H        -3.658341         0.760350        -2.970782
 H        -2.032779         0.419126        -3.545866
 H        -3.286611        -0.764261         0.530309
 H        -3.970349        -1.939706        -0.803296
 H        -1.477800        -1.861397        -1.851325
 H        -0.737796         2.124025         0.440337
 H        -0.057569         1.848601        -1.228258
 H        -2.846216         1.427383        -0.024914
 H        -2.309961         1.932995        -1.728507
