19
Iteration:   930charge 0 multiplicity 1
 C        -2.811865        -0.047693        -2.981961
 C        -2.472258        -0.062985        -1.504653
 C        -3.175063        -1.067180        -0.638232
 C        -1.707123        -1.232107        -0.951706
 O        -0.691852        -1.076679        -0.005425
 C         0.105037         0.061188        -0.027918
 O         1.277945         0.101260         0.315563
 C        -0.814870         1.292459        -0.157660
 C        -2.214790         1.353071        -0.848871
 H        -2.968395        -1.014136        -3.439439
 H        -3.660267         0.594967        -3.202141
 H        -1.991778         0.222045        -3.609412
 H        -3.238271        -0.669735         0.347176
 H        -3.798746        -1.824716        -0.843896
 H        -1.396581        -1.952239        -1.815681
 H        -0.925850         1.576893         0.852395
 H        -0.262469         2.067897        -0.739208
 H        -2.943925         1.660700        -0.178374
 H        -2.322513         1.969734        -1.844835
