19
Iteration:  1006
 C        -2.796310        -0.090942        -3.010163
 C        -2.517329        -0.044839        -1.553387
 C        -3.159537        -1.071824        -0.611209
 C        -1.698097        -1.209718        -0.953968
 O        -0.600248        -1.145728         0.072324
 C         0.057007         0.106181        -0.006298
 O         1.240475         0.061700         0.240711
 C        -0.804308         1.347193        -0.139312
 C        -2.215444         1.389027        -0.887348
 H        -3.065086        -1.012185        -3.461563
 H        -3.602383         0.587124        -3.239854
 H        -1.994562         0.329919        -3.623699
 H        -3.327963        -0.787730         0.405995
 H        -3.810539        -1.778506        -0.943297
 H        -1.508364        -2.105878        -1.662511
 H        -1.136734         1.406582         0.905487
 H        -0.152629         2.393199        -0.359892
 H        -3.022436         1.676183        -0.255180
 H        -2.233969         2.117547        -1.680947
