19
Iteration:  4393
 C        -3.311408         0.007762        -2.854441
 C        -2.443471        -0.035802        -1.621028
 C        -2.809268        -0.802422        -0.253744
 C        -1.701769        -1.297010        -1.145023
 O        -0.407940        -1.108068        -0.592566
 C        -0.057528        -0.007589         0.179376
 O         0.974624        -0.008640         0.759756
 C        -0.956509         1.283046        -0.017162
 C        -1.770541         1.306638        -1.295382
 H        -3.975882        -0.859531        -2.617381
 H        -3.875755         0.978510        -2.909119
 H        -2.848147        -0.176750        -3.818428
 H        -2.466809        -0.379394         0.693172
 H        -3.570801        -1.540781        -0.293749
 H        -1.576266        -2.218934        -1.779951
 H        -1.561547         1.570842         0.750189
 H        -0.125091         2.041658         0.068289
 H        -2.594135         2.029195        -1.290808
 H        -1.088132         1.548107        -2.241035
