19
Iteration:  3430charge 0 multiplicity 1
 C        -3.212878         0.244532        -2.770364
 C        -2.464996        -0.015323        -1.433667
 C        -2.999637        -1.278151        -0.604063
 C        -1.616612        -1.229954        -1.254411
 O        -0.629231        -1.155221        -0.205625
 C         0.048823         0.132876         0.008951
 O         0.724933         0.215142         0.980209
 C        -0.336874         1.226010        -0.912434
 C        -1.930155         1.173674        -0.689510
 H        -3.506997        -0.656138        -3.287909
 H        -4.126554         0.846343        -2.526256
 H        -2.548817         0.801202        -3.428941
 H        -3.004268        -1.204482         0.521800
 H        -3.722229        -1.957452        -1.143424
 H        -1.443123        -1.833357        -2.203291
 H         0.090186         2.203635        -0.534621
 H         0.015832         1.093298        -1.901322
 H        -2.084292         1.217546         0.330510
 H        -2.289075         2.073275        -1.184011
