19
Iteration:  2076charge 0 multiplicity 1
 C        -3.221564        -0.261580        -2.845730
 C        -2.501189         0.021099        -1.490393
 C        -2.825258        -0.902498        -0.339201
 C        -1.629543        -1.193219        -1.144096
 O        -0.308670        -1.042557        -0.672951
 C        -0.063910         0.068969         0.064571
 O         0.721862        -0.078689         1.002133
 C        -0.636249         1.437670        -0.288146
 C        -1.976630         1.363339        -1.165507
 H        -3.225979        -1.382608        -2.906311
 H        -4.252326         0.034768        -2.621820
 H        -2.922587         0.346006        -3.787396
 H        -2.598882        -0.564266         0.662343
 H        -3.629004        -1.702402        -0.158865
 H        -1.701642        -2.080821        -1.738062
 H        -0.581876         2.003463         0.635768
 H         0.087300         1.654748        -0.948613
 H        -2.820194         1.840753        -0.565699
 H        -1.938315         1.972067        -2.185219
