19
Iteration:   550charge 0 multiplicity 1
 C        -3.039246        -0.043397        -2.945592
 C        -2.439058        -0.094828        -1.576552
 C        -3.084798        -0.794106        -0.359092
 C        -1.775196        -1.298868        -0.950663
 O        -0.504660        -1.140629        -0.323457
 C        -0.048443         0.070535         0.130747
 O         1.159052         0.199186         0.280931
 C        -1.064690         1.176711         0.216647
 C        -1.681840         1.238000        -1.236507
 H        -3.372913        -1.090194        -3.323958
 H        -3.990344         0.540229        -2.985485
 H        -2.229557         0.369259        -3.668716
 H        -3.171359        -0.201475         0.534456
 H        -3.917781        -1.380884        -0.620944
 H        -1.745493        -2.276819        -1.447071
 H        -1.805693         1.112256         0.939560
 H        -0.463418         2.046868         0.436337
 H        -2.476876         2.065843        -1.388686
 H        -0.915001         1.415869        -1.998107
