19
Iteration:  2349charge 0 multiplicity 1
 C        -2.699424        -0.087913        -2.955429
 C        -2.386041        -0.026970        -1.444017
 C        -3.172810        -0.868702        -0.518560
 C        -1.693241        -1.301757        -0.925808
 O        -0.632108        -1.171941        -0.053036
 C        -0.054905         0.151579         0.010476
 O         1.143655         0.136325        -0.040696
 C        -1.031250         1.219639         0.222241
 C        -1.962099         1.330140        -1.062836
 H        -2.902151        -1.157053        -3.176843
 H        -3.692538         0.299114        -3.210744
 H        -1.870030         0.390109        -3.522793
 H        -3.209045        -0.779762         0.550938
 H        -3.940991        -1.544383        -0.942199
 H        -1.604454        -2.132325        -1.708781
 H        -1.700255         1.155661         1.016999
 H        -0.380589         2.247899         0.386438
 H        -2.849219         1.926915        -0.911730
 H        -1.262526         1.759565        -1.752085
