19
Iteration:  4715
 C        -3.446311        -0.118744        -2.652083
 C        -2.432706        -0.077738        -1.565439
 C        -2.816181        -0.803831        -0.307408
 C        -1.673430        -1.214786        -1.155736
 O        -0.294387        -0.972514        -0.770739
 C         0.061497         0.157620         0.130327
 O         0.683144        -0.203814         1.074333
 C        -0.792569         1.326887        -0.175407
 C        -1.680109         1.262673        -1.464113
 H        -3.903634        -1.098240        -2.636488
 H        -4.174790         0.699378        -2.468978
 H        -2.858349         0.152735        -3.611817
 H        -2.598773        -0.301275         0.615941
 H        -3.735808        -1.433492        -0.289839
 H        -1.803439        -2.172533        -1.720908
 H        -1.398730         1.475858         0.747163
 H        -0.168586         2.183249        -0.284085
 H        -2.369562         2.060564        -1.285940
 H        -1.072124         1.450053        -2.494926
