19
Iteration:  4288charge 0 multiplicity 1
 C        -3.371225        -0.019533        -2.717741
 C        -2.445897         0.028302        -1.500558
 C        -2.850248        -0.885661        -0.353282
 C        -1.664065        -1.255599        -1.182356
 O        -0.302270        -1.263775        -0.645844
 C        -0.042763        -0.032176         0.059219
 O         0.758418         0.045540         0.999056
 C        -0.640674         1.352105        -0.295087
 C        -1.865257         1.407863        -1.264019
 H        -3.354641        -1.038410        -3.110546
 H        -4.395667         0.121902        -2.504338
 H        -3.020198         0.543823        -3.543088
 H        -2.639610        -0.555466         0.671228
 H        -3.786045        -1.411090        -0.423000
 H        -1.567546        -2.140924        -1.841802
 H        -1.049204         1.643392         0.762271
 H         0.242521         1.966562        -0.431401
 H        -2.769830         1.947804        -0.863565
 H        -1.617858         1.850569        -2.171004
