19
Iteration:   963
 C        -2.663419        -0.058255        -3.009877
 C        -2.480402        -0.094447        -1.458461
 C        -3.257674        -1.067747        -0.559414
 C        -1.796617        -1.373888        -0.916198
 O        -0.630117        -1.162970        -0.113130
 C        -0.003239         0.081267         0.027829
 O         1.187689         0.138063         0.187400
 C        -0.794096         1.493623        -0.072368
 C        -2.112323         1.328897        -0.866727
 H        -2.549059        -1.043231        -3.431874
 H        -3.582156         0.341960        -3.427913
 H        -1.923084         0.634353        -3.361729
 H        -3.322368        -0.695220         0.446509
 H        -4.014293        -1.690143        -0.769358
 H        -1.505079        -2.138904        -1.731175
 H        -0.878383         1.849151         0.935953
 H        -0.006747         2.235201        -0.566176
 H        -2.820874         1.623561        -0.170303
 H        -2.253375         2.148887        -1.701288
