19
Iteration:  3906
 C        -3.155193         0.302654        -2.703706
 C        -2.528862         0.004690        -1.359190
 C        -2.992533        -1.303417        -0.660785
 C        -1.597467        -1.309978        -1.139498
 O        -0.525861        -1.181686        -0.173839
 C         0.029081         0.042201        -0.036200
 O         0.716122         0.281670         0.951413
 C        -0.412559         1.125667        -1.030899
 C        -1.930779         1.310200        -0.685794
 H        -3.650849        -0.518627        -3.292870
 H        -3.795764         1.171997        -2.711489
 H        -2.302779         0.741494        -3.322460
 H        -3.423049        -1.239134         0.378372
 H        -3.780042        -1.717920        -1.382415
 H        -1.365823        -1.959661        -1.978515
 H        -0.004791         2.063490        -0.752773
 H        -0.294030         0.899460        -2.027971
 H        -2.105898         1.306855         0.379315
 H        -2.491872         2.172887        -1.163906
