19
Iteration:  3491charge 0 multiplicity 1
 C        -3.216954         0.262336        -2.739378
 C        -2.565563        -0.034748        -1.418491
 C        -2.838281        -1.236341        -0.506513
 C        -1.630214        -1.263927        -1.289132
 O        -0.477831        -1.176275        -0.351762
 C        -0.009288         0.105450         0.058840
 O         0.595596         0.184254         1.072225
 C        -0.420648         1.104956        -0.925746
 C        -1.912929         1.391641        -0.765959
 H        -3.436396        -0.687160        -3.339525
 H        -4.089029         0.954608        -2.754735
 H        -2.470703         0.887417        -3.331912
 H        -2.695141        -1.227726         0.581228
 H        -3.616073        -1.887935        -0.771678
 H        -1.418788        -1.900550        -2.169461
 H         0.025122         2.011386        -0.690029
 H        -0.002066         0.639140        -1.942738
 H        -2.068668         1.399046         0.465943
 H        -2.226072         2.318060        -1.369100
