19
Iteration:  3017
 C        -3.501255        -0.158799        -2.548418
 C        -2.414385        -0.057145        -1.521885
 C        -2.734017        -0.868126        -0.289939
 C        -1.559983        -1.240371        -1.211961
 O        -0.213475        -0.977408        -0.853335
 C         0.058870         0.082683         0.091367
 O         0.445463        -0.096347         1.199812
 C        -0.739114         1.368469        -0.291435
 C        -1.679514         1.294422        -1.477189
 H        -3.899990        -1.182993        -2.662542
 H        -4.337976         0.422212        -2.190286
 H        -3.072084         0.102903        -3.615593
 H        -2.472552        -0.504785         0.760446
 H        -3.684598        -1.373719        -0.229786
 H        -1.494593        -2.021207        -1.885902
 H        -1.437966         1.503242         0.606483
 H        -0.076578         2.150400        -0.393528
 H        -2.365945         2.166466        -1.233913
 H        -1.260343         1.447681        -2.555722
