19
Iteration:  4162
 C        -3.051901        -0.069790        -2.874709
 C        -2.381330        -0.108503        -1.580334
 C        -3.183079        -0.783242        -0.427853
 C        -1.806187        -1.279365        -0.964010
 O        -0.504566        -1.058272        -0.435064
 C        -0.013773         0.085186         0.095329
 O         1.166992         0.099867         0.389980
 C        -0.997734         1.176540         0.179685
 C        -1.709465         1.269455        -1.193317
 H        -3.318579        -1.101747        -3.122664
 H        -3.959834         0.608440        -2.885570
 H        -2.460225         0.487684        -3.676925
 H        -3.075096        -0.509085         0.633297
 H        -3.932567        -1.493600        -0.758359
 H        -1.731302        -2.292527        -1.332938
 H        -1.721901         1.081215         0.961744
 H        -0.426803         2.163816         0.314046
 H        -2.452553         1.969465        -1.073235
 H        -1.015574         1.524767        -2.014712
