19
Iteration:  4080charge 0 multiplicity 1
 C        -2.994986        -0.003967        -2.999748
 C        -2.453028        -0.014359        -1.527234
 C        -3.165975        -0.982301        -0.524596
 C        -1.731374        -1.323765        -0.962332
 O        -0.573335        -1.221453        -0.150228
 C         0.009408         0.046045         0.002717
 O         1.192328         0.127410         0.300459
 C        -0.815333         1.330921         0.093948
 C        -1.962112         1.345960        -1.006823
 H        -3.493669        -0.969970        -3.257411
 H        -3.740807         0.782899        -3.142220
 H        -2.247610         0.105196        -3.736507
 H        -3.402126        -0.574609         0.490724
 H        -4.106567        -1.465743        -0.886820
 H        -1.463226        -1.989801        -1.762868
 H        -1.161713         1.524098         1.114530
 H        -0.068403         2.089149        -0.154350
 H        -2.672589         2.162696        -0.928627
 H        -1.406605         1.637600        -1.899117
