19
Iteration:   770
 C        -3.105364         0.285208        -2.685239
 C        -2.470998        -0.127653        -1.388281
 C        -2.989888        -1.217135        -0.581142
 C        -1.561068        -1.202368        -1.247458
 O        -0.542925        -1.177207        -0.212193
 C        -0.014034         0.107609         0.028428
 O         0.678833         0.293035         0.981411
 C        -0.468589         1.149659        -1.032208
 C        -1.977092         1.208820        -0.755822
 H        -3.417799        -0.579551        -3.285725
 H        -3.885728         0.976690        -2.387799
 H        -2.437251         0.742569        -3.359518
 H        -2.977371        -1.159912         0.501602
 H        -3.736221        -1.950776        -0.850628
 H        -1.245504        -1.878950        -2.102677
 H         0.071551         2.067825        -0.707025
 H        -0.178072         0.800441        -2.195496
 H        -2.113905         1.239542         0.365608
 H        -2.447047         2.028715        -1.176456
