19
Iteration:  1264
 C        -3.152378        -0.131406        -2.965007
 C        -2.553308        -0.035113        -1.467369
 C        -2.946190        -1.028771        -0.420794
 C        -1.625318        -1.248974        -1.099376
 O        -0.379848        -1.059896        -0.453304
 C         0.056816         0.097175         0.049221
 O         0.863324        -0.011513         0.948597
 C        -0.644545         1.389063        -0.524553
 C        -2.103868         1.346303        -0.908896
 H        -2.971193        -1.108576        -3.312484
 H        -4.207006         0.187960        -2.959115
 H        -2.570990         0.636261        -3.537813
 H        -2.966229        -0.618925         0.508260
 H        -3.754640        -1.647177        -0.645371
 H        -1.516959        -2.090067        -1.817101
 H        -0.442128         2.257894         0.309992
 H        -0.034772         1.634738        -1.538608
 H        -2.613033         1.687122        -0.086527
 H        -2.258408         2.125227        -1.643329
