19
Iteration:    95
 C        -2.906018        -0.077253        -2.939696
 C        -2.442467        -0.035654        -1.490659
 C        -3.079230        -0.891398        -0.519278
 C        -1.707363        -1.263713        -0.991702
 O        -0.714700        -1.177320         0.027803
 C         0.011893         0.068690        -0.008480
 O         1.209251         0.162328         0.072129
 C        -1.004396         1.255393         0.166582
 C        -1.834742         1.319373        -1.142251
 H        -3.402941        -0.916903        -3.382233
 H        -3.428259         0.911423        -3.057902
 H        -1.968949        -0.194799        -3.523945
 H        -3.161685        -0.552381         0.519068
 H        -4.026170        -1.341727        -0.828370
 H        -1.651032        -2.153315        -1.609099
 H        -1.701433         0.912939         1.053741
 H        -0.350050         2.212200         0.442316
 H        -2.724439         1.915187        -0.943321
 H        -1.173279         1.529299        -2.017617
