19
Iteration:  1589charge 0 multiplicity 1
 C        -2.988723         0.049256        -2.955178
 C        -2.557875        -0.078291        -1.445372
 C        -3.001770        -1.080093        -0.432072
 C        -1.652510        -1.295940        -1.100557
 O        -0.406907        -1.146423        -0.359412
 C        -0.021476         0.160480         0.099559
 O         0.904522         0.111973         0.841395
 C        -0.630779         1.348117        -0.596340
 C        -2.179625         1.275070        -0.832402
 H        -2.895137        -0.915858        -3.428898
 H        -3.993185         0.390677        -3.169020
 H        -2.389019         0.752532        -3.401801
 H        -2.903143        -0.687873         0.558875
 H        -3.756314        -1.820784        -0.655509
 H        -1.408687        -1.946392        -1.952263
 H        -0.351132         2.317265        -0.335963
 H        -0.068347         1.145748        -1.577167
 H        -2.580620         1.307348         0.089011
 H        -2.451988         2.050456        -1.524791
