19
Iteration:  1607
 C        -3.005965         0.086820        -2.867663
 C        -2.502772        -0.059677        -1.455568
 C        -2.991103        -1.175774        -0.477623
 C        -1.652100        -1.244164        -1.168462
 O        -0.479966        -1.191951        -0.351544
 C         0.033073         0.065941         0.030468
 O         0.826307         0.279601         0.944484
 C        -0.585185         1.306122        -0.779841
 C        -2.097517         1.247804        -0.762617
 H        -3.197868        -0.916387        -3.389092
 H        -3.889605         0.722141        -2.806776
 H        -2.195516         0.616950        -3.462292
 H        -2.995436        -0.942718         0.581818
 H        -3.798945        -1.827547        -0.633148
 H        -1.596491        -2.102600        -1.823777
 H        -0.206664         2.092763        -0.092383
 H        -0.156506         1.434756        -1.865969
 H        -2.618435         1.278308         0.269829
 H        -2.495739         2.104913        -1.328053
