19
Iteration:  3874charge 0 multiplicity 1
 C        -3.170864         0.344035        -2.784638
 C        -2.501988        -0.046984        -1.427263
 C        -2.939718        -1.331707        -0.537883
 C        -1.674898        -1.295501        -1.243197
 O        -0.645696        -1.131953        -0.198280
 C         0.077246         0.116212         0.000426
 O         0.744050         0.275089         0.995259
 C        -0.369851         1.146716        -0.990411
 C        -1.918500         1.173175        -0.716698
 H        -3.737459        -0.291132        -3.451170
 H        -3.783463         1.127709        -2.541396
 H        -2.337076         0.696913        -3.397725
 H        -3.163549        -0.981589         0.479332
 H        -3.875316        -1.910333        -0.866581
 H        -1.290826        -1.892215        -2.049573
 H         0.102276         2.091318        -0.735172
 H        -0.133771         0.897031        -2.059403
 H        -2.156671         1.156680         0.387066
 H        -2.449485         2.128805        -0.952037
