19
Iteration:  2786charge 0 multiplicity 1
 C        -2.594177        -0.130201        -3.012718
 C        -2.318281        -0.020076        -1.500176
 C        -3.273997        -0.996831        -0.588223
 C        -1.808307        -1.315593        -0.828562
 O        -0.639343        -1.185883         0.065804
 C        -0.053750         0.048923         0.065313
 O         1.091511         0.217116        -0.232756
 C        -0.945120         1.258167         0.252449
 C        -1.957838         1.466130        -0.951505
 H        -3.303177        -0.945786        -3.396383
 H        -3.139620         0.739679        -3.385914
 H        -1.658242        -0.407321        -3.544603
 H        -3.587756        -0.675790         0.437297
 H        -3.767765        -1.787718        -1.038669
 H        -1.561155        -2.000161        -1.752490
 H        -1.494689         1.345082         1.296995
 H        -0.303191         2.215668         0.371420
 H        -2.865751         1.975784        -0.734319
 H        -1.363465         1.902331        -1.678717
