19
Iteration:   165
 C        -2.894996        -0.076914        -2.952481
 C        -2.438107        -0.016352        -1.551036
 C        -3.066964        -0.936623        -0.442489
 C        -1.725737        -1.216588        -0.986464
 O        -0.697170        -1.153594        -0.060346
 C         0.042898         0.014797        -0.065734
 O         1.174997         0.121371         0.329889
 C        -0.823638         1.218584        -0.087804
 C        -2.022874         1.378549        -1.051058
 H        -2.986357        -1.049192        -3.453555
 H        -3.804359         0.549452        -2.976774
 H        -2.122326         0.395842        -3.539186
 H        -3.287698        -0.472408         0.525040
 H        -3.846168        -1.568054        -0.767554
 H        -1.627102        -2.031325        -1.741444
 H        -1.157863         1.170129         0.844270
 H        -0.210850         2.004713        -0.143505
 H        -2.878748         1.702092        -0.433696
 H        -1.793390         2.013166        -1.832018
