19
Iteration:  4729charge 0 multiplicity 1
 C        -3.414011        -0.096512        -2.633977
 C        -2.341794        -0.020773        -1.559776
 C        -2.752861        -0.844579        -0.192152
 C        -1.617822        -1.272392        -1.188652
 O        -0.307576        -0.987424        -0.801558
 C        -0.155618        -0.033155         0.103752
 O         0.654285        -0.135990         1.048959
 C        -0.771297         1.412149        -0.203609
 C        -1.647460         1.305561        -1.430409
 H        -4.114980        -0.964062        -2.545055
 H        -4.162198         0.709344        -2.563407
 H        -3.158704        -0.175760        -3.731799
 H        -2.531735        -0.501140         0.844421
 H        -3.757577        -1.221399        -0.335703
 H        -1.578349        -2.169991        -1.713611
 H        -1.506799         1.531521         0.529982
 H        -0.080878         2.229055        -0.087023
 H        -2.479715         2.115055        -1.536123
 H        -0.986150         1.598272        -2.412878
