19
Iteration:  1576
 C        -2.978578        -0.018993        -2.939235
 C        -2.519659        -0.055068        -1.507032
 C        -3.021535        -1.118643        -0.451912
 C        -1.638160        -1.197598        -1.044390
 O        -0.462827        -1.017942        -0.371241
 C        -0.006380         0.100934         0.112312
 O         0.973260         0.052569         0.800386
 C        -0.684426         1.296985        -0.549196
 C        -2.164678         1.292322        -0.859611
 H        -2.765130        -0.968188        -3.484671
 H        -4.025342         0.129786        -2.985439
 H        -2.479980         0.729947        -3.482016
 H        -3.070856        -0.765033         0.563050
 H        -3.710480        -1.854611        -0.733290
 H        -1.559260        -2.095339        -1.646077
 H        -0.343489         2.077753         0.133192
 H        -0.170107         1.498916        -1.605276
 H        -2.745990         1.576849        -0.075700
 H        -2.360885         2.103870        -1.520225
