19
Iteration:  4248
 C        -3.297610        -0.060835        -2.834669
 C        -2.536620        -0.047633        -1.548983
 C        -2.906288        -1.010292        -0.371529
 C        -1.644484        -1.194281        -1.113982
 O        -0.416764        -1.023969        -0.516287
 C        -0.002161         0.110497         0.187523
 O         0.973421        -0.158370         0.871739
 C        -0.654877         1.382261        -0.264806
 C        -1.948861         1.304445        -1.239746
 H        -3.828143        -0.990631        -2.996803
 H        -4.011131         0.803050        -2.782530
 H        -2.601914         0.174306        -3.725120
 H        -2.944421        -0.554365         0.633688
 H        -3.815143        -1.561838        -0.655794
 H        -1.678720        -2.006064        -1.815069
 H        -1.051037         1.825416         0.640199
 H         0.096421         2.101939        -0.606908
 H        -2.652490         2.030944        -0.735169
 H        -1.746966         1.859947        -2.253209
