19
Iteration:   520
 C        -2.999137        -0.136534        -2.978185
 C        -2.489235        -0.054726        -1.558432
 C        -3.066827        -0.686461        -0.310392
 C        -1.795572        -1.211829        -0.939327
 O        -0.481579        -1.250072        -0.411694
 C         0.016957         0.012747         0.034369
 O         1.148721         0.251772         0.409733
 C        -1.027209         1.135262         0.177443
 C        -1.806273         1.271538        -1.209195
 H        -3.034099        -1.142941        -3.256585
 H        -3.946765         0.272586        -3.213688
 H        -2.380027         0.533137        -3.590020
 H        -3.108869        -0.115502         0.589317
 H        -3.858129        -1.339934        -0.430942
 H        -1.917640        -2.145790        -1.662693
 H        -1.692127         1.033875         1.062213
 H        -0.446945         1.951463         0.406080
 H        -2.451644         2.105858        -1.353470
 H        -1.049139         1.445704        -1.969475
