19
Iteration:   697charge 0 multiplicity 1
 C        -3.173408        -0.065316        -2.878938
 C        -2.489477        -0.039886        -1.505919
 C        -2.939439        -1.017720        -0.499622
 C        -1.630325        -1.250700        -1.126193
 O        -0.487381        -1.150015        -0.300384
 C        -0.022545         0.069084         0.099755
 O         0.924801        -0.012340         0.830868
 C        -0.572818         1.398334        -0.533426
 C        -2.069396         1.418947        -0.932340
 H        -3.362931        -1.000690        -3.406148
 H        -4.103728         0.506171        -2.580957
 H        -2.543415         0.471781        -3.721650
 H        -2.888231        -0.711532         0.639985
 H        -3.780635        -1.776267        -0.737545
 H        -1.421299        -2.064488        -1.800644
 H        -0.284604         2.235962         0.135544
 H        -0.079636         1.484815        -1.385553
 H        -2.760715         1.789968        -0.104400
 H        -2.229694         2.089214        -1.843794
