19
Iteration:  2742charge 0 multiplicity 1
 C        -2.789110        -0.079356        -3.079767
 C        -2.448409        -0.050608        -1.557045
 C        -3.126020        -0.977223        -0.447469
 C        -1.777281        -1.252208        -0.850352
 O        -0.640574        -1.109109        -0.049250
 C         0.027157         0.123185         0.007975
 O         1.250824         0.110983         0.082119
 C        -1.029344         1.235912         0.179717
 C        -1.949266         1.322408        -1.110764
 H        -2.945033        -1.102827        -3.547744
 H        -3.734141         0.503103        -3.150983
 H        -1.918796         0.442601        -3.524197
 H        -3.114094        -0.445934         0.501806
 H        -3.974539        -1.500678        -0.739307
 H        -1.601267        -2.166659        -1.517909
 H        -1.739045         0.984732         1.095702
 H        -0.602507         2.246397         0.532882
 H        -2.772197         1.913638        -0.849305
 H        -1.474649         1.815303        -1.891452
