19
Iteration:   863
 C        -3.034278         0.034606        -2.922828
 C        -2.584962        -0.019108        -1.464170
 C        -3.068052        -1.168945        -0.617079
 C        -1.602190        -1.225222        -1.069785
 O        -0.618735        -1.150001        -0.074725
 C         0.055736         0.100188         0.036155
 O         1.101852         0.116489         0.630656
 C        -0.619826         1.369917        -0.499322
 C        -2.139343         1.270920        -0.872650
 H        -3.201654        -0.906577        -3.388944
 H        -3.874871         0.715504        -3.031705
 H        -2.260737         0.468731        -3.602047
 H        -3.227447        -1.087483         0.429883
 H        -3.717949        -1.975647        -0.994710
 H        -1.354153        -1.835008        -2.001178
 H        -0.615825         1.991228         0.371322
 H         0.122961         1.719777        -1.195327
 H        -2.578359         1.448034         0.099927
 H        -2.334177         2.233202        -1.503109
