19
Iteration:   804charge 0 multiplicity 1
 C        -2.998719         0.221851        -2.832715
 C        -2.513227        -0.084474        -1.398248
 C        -3.106986        -1.260149        -0.537933
 C        -1.644179        -1.219609        -1.093576
 O        -0.519746        -1.171455        -0.270296
 C         0.048446         0.097834        -0.084956
 O         0.719702         0.280773         0.896510
 C        -0.457785         1.208592        -0.921632
 C        -1.979666         1.236808        -0.613976
 H        -2.946112        -0.649530        -3.415944
 H        -4.056137         0.424440        -2.842490
 H        -2.452570         1.055648        -3.227814
 H        -3.332288        -1.138613         0.574242
 H        -3.593595        -2.029368        -1.154914
 H        -1.422854        -1.927652        -1.865038
 H         0.057685         2.156016        -0.558065
 H        -0.284078         1.211351        -2.110630
 H        -2.102599         1.271349         0.525417
 H        -2.475926         2.055419        -0.982153
