19
Iteration:  1562
 C        -3.024899        -0.125613        -2.931756
 C        -2.515729        -0.041195        -1.506656
 C        -3.044388        -1.116098        -0.499032
 C        -1.699800        -1.176020        -1.102019
 O        -0.519280        -1.133800        -0.319196
 C         0.062812         0.114807         0.048908
 O         1.053711         0.094639         0.796767
 C        -0.621973         1.412736        -0.408232
 C        -2.142567         1.292241        -0.900734
 H        -2.743396        -1.085706        -3.436427
 H        -4.129144         0.043843        -2.934052
 H        -2.564784         0.764143        -3.548733
 H        -3.434081        -0.666838         0.446795
 H        -3.811847        -1.855635        -0.901947
 H        -1.567723        -1.890745        -1.919912
 H        -0.606769         2.288343         0.370379
 H         0.111275         1.756612        -1.288559
 H        -2.866787         1.481731         0.021425
 H        -2.319389         2.043545        -1.693694
