19
Iteration:  1231
 C        -3.269513        -0.122030        -2.803267
 C        -2.467687        -0.029645        -1.527555
 C        -2.925403        -1.084670        -0.443449
 C        -1.612472        -1.216221        -1.193835
 O        -0.416396        -1.070003        -0.461254
 C        -0.017371         0.041049         0.114210
 O         0.865591         0.118653         0.912116
 C        -0.662041         1.296415        -0.329177
 C        -1.918655         1.348683        -1.090900
 H        -3.542379        -1.080726        -3.161901
 H        -4.215687         0.416675        -2.589584
 H        -2.850344         0.326274        -3.734294
 H        -2.928728        -0.744460         0.519662
 H        -3.780769        -1.639559        -0.695829
 H        -1.436655        -1.984336        -2.011169
 H        -0.718773         2.177190         0.458004
 H         0.052426         1.813383        -1.030705
 H        -2.631164         1.812635        -0.490380
 H        -1.878908         1.905023        -2.028992
