19
Iteration:  2747
 C        -2.763057        -0.099079        -3.063765
 C        -2.419395        -0.084461        -1.561158
 C        -3.152876        -0.933253        -0.487918
 C        -1.787273        -1.268074        -0.860575
 O        -0.668219        -1.091961        -0.031305
 C         0.042985         0.105286         0.013295
 O         1.259131         0.128663         0.035831
 C        -1.052074         1.250590         0.188899
 C        -1.954977         1.279718        -1.045155
 H        -2.980762        -1.079065        -3.423357
 H        -3.582968         0.630850        -3.138216
 H        -1.903663         0.457104        -3.518546
 H        -3.144440        -0.408135         0.501427
 H        -4.094590        -1.570663        -0.730454
 H        -1.446270        -2.034666        -1.515392
 H        -1.560579         0.934648         1.131016
 H        -0.564531         2.149069         0.440427
 H        -2.948848         1.950872        -1.006766
 H        -1.409464         1.957422        -1.873229
