19
Iteration:  4076
 C        -3.030371        -0.010793        -3.009481
 C        -2.464498        -0.018923        -1.493687
 C        -3.171794        -1.009482        -0.540581
 C        -1.724934        -1.295968        -0.970835
 O        -0.602787        -1.223710        -0.147472
 C         0.038783         0.062749         0.018671
 O         1.198217         0.134912         0.316233
 C        -0.803736         1.314404         0.055489
 C        -1.954077         1.334242        -0.994969
 H        -3.484027        -0.964674        -3.277587
 H        -3.653763         0.879887        -3.288403
 H        -2.132797         0.095491        -3.675456
 H        -3.373899        -0.560969         0.451330
 H        -4.018746        -1.610373        -0.918160
 H        -1.557408        -2.033346        -1.769931
 H        -1.137044         1.489689         1.094007
 H         0.030278         2.165831        -0.284778
 H        -2.699498         2.326143        -0.762534
 H        -1.395409         1.696368        -1.890339
