19
Iteration:   338charge 0 multiplicity 1
 C        -3.383945        -0.178807        -2.782967
 C        -2.440371        -0.073121        -1.542398
 C        -2.835776        -0.831543        -0.255084
 C        -1.622220        -1.265779        -1.220245
 O        -0.340298        -1.080203        -0.651349
 C        -0.046946         0.025623         0.106780
 O         0.814085        -0.022950         0.950112
 C        -0.771343         1.384978        -0.166238
 C        -1.792261         1.365552        -1.295483
 H        -3.637599        -1.227551        -3.044421
 H        -4.445638         0.289852        -2.651832
 H        -2.891606         0.415847        -3.543997
 H        -2.499832        -0.472949         0.700608
 H        -3.766279        -1.310280        -0.329384
 H        -1.736406        -2.247933        -1.790542
 H        -1.175784         1.698241         0.706328
 H         0.020578         2.068709        -0.378364
 H        -2.641171         2.089830        -1.205984
 H        -1.312627         1.804306        -2.223424
