19
Iteration:   120charge 0 multiplicity 1
 C        -2.905694        -0.046366        -2.972897
 C        -2.429035        -0.074906        -1.507981
 C        -3.204887        -1.096245        -0.578933
 C        -1.742822        -1.232638        -0.942707
 O        -0.715325        -1.009412        -0.035678
 C        -0.016690         0.109710         0.119518
 O         1.211482         0.061367         0.055462
 C        -0.851997         1.365817         0.182799
 C        -1.824814         1.303791        -1.080865
 H        -3.515469        -0.917004        -3.188923
 H        -3.551573         0.883150        -3.046917
 H        -2.117526        -0.165828        -3.759762
 H        -3.394241        -0.992417         0.428260
 H        -3.836270        -1.844585        -1.039735
 H        -1.577135        -2.147687        -1.461111
 H        -1.361189         1.427490         1.035985
 H        -0.126466         2.101365         0.108963
 H        -2.716583         1.948963        -0.932455
 H        -1.255054         1.517224        -1.940347
