19
Iteration:  1376charge 0 multiplicity 1
 C        -2.979871         0.206913        -2.814147
 C        -2.549255        -0.067407        -1.425976
 C        -3.056040        -1.262239        -0.771662
 C        -1.591686        -1.235051        -1.049839
 O        -0.666892        -1.037994         0.041323
 C         0.016364         0.126840         0.013225
 O         1.039757         0.229653         0.711196
 C        -0.612395         1.218187        -0.874292
 C        -2.117502         1.142351        -0.669156
 H        -2.973533        -0.654205        -3.449555
 H        -3.932157         0.688696        -2.874926
 H        -2.275368         0.825094        -3.443455
 H        -3.442898        -1.355548         0.303060
 H        -3.589839        -2.008503        -1.463617
 H        -1.148444        -1.926984        -1.741077
 H        -0.102021         2.221745        -0.514385
 H        -0.120482         1.100965        -1.919898
 H        -2.430732         0.945931         0.325542
 H        -2.498402         2.133982        -0.987370
