19
Iteration:  3616charge 0 multiplicity 1
 C        -3.091831        -0.073486        -2.857053
 C        -2.463082         0.005901        -1.468110
 C        -3.090712        -0.939784        -0.550546
 C        -1.734014        -1.249211        -1.119727
 O        -0.635406        -1.118047        -0.239574
 C         0.033924         0.089238         0.070533
 O         1.173193         0.059348         0.480279
 C        -0.792223         1.312733         0.005560
 C        -1.854347         1.292438        -1.148563
 H        -3.464518        -1.022027        -3.121548
 H        -3.909432         0.675859        -2.956536
 H        -2.308067         0.101559        -3.528279
 H        -3.116279        -0.856889         0.577003
 H        -3.791138        -1.611088        -1.030158
 H        -1.687539        -2.097000        -1.748279
 H        -1.250407         1.484332         1.060304
 H        -0.107566         2.073646        -0.181532
 H        -2.780352         1.893025        -0.781471
 H        -1.502222         1.630828        -2.174307
