19
Iteration:  3940charge 0 multiplicity 1
 C        -3.104748         0.094042        -2.783322
 C        -2.525660        -0.010283        -1.413527
 C        -3.007346        -1.113404        -0.567491
 C        -1.655171        -1.219223        -1.203007
 O        -0.600555        -1.082010        -0.278226
 C         0.010822         0.040558         0.028063
 O         0.879005         0.144586         0.885046
 C        -0.478873         1.204182        -0.796124
 C        -1.998921         1.231891        -0.727971
 H        -2.945007        -0.836508        -3.375632
 H        -4.136044         0.398806        -2.893645
 H        -2.362446         0.806418        -3.294372
 H        -3.049132        -0.925920         0.536355
 H        -3.937171        -1.529240        -1.007379
 H        -1.379135        -1.877725        -2.019234
 H        -0.034165         2.122944        -0.369168
 H        -0.116885         1.199529        -1.809173
 H        -2.301061         1.251017         0.366514
 H        -2.309079         2.241054        -1.118046
