19
Iteration:  3443
 C        -3.253630         0.301490        -2.691789
 C        -2.469866        -0.088568        -1.439056
 C        -3.000984        -1.270641        -0.709944
 C        -1.630218        -1.359855        -1.231988
 O        -0.570938        -1.137988        -0.251792
 C        -0.046758         0.058671        -0.000173
 O         0.669237         0.330555         1.012504
 C        -0.282481         1.229458        -0.928269
 C        -1.818496         1.222932        -0.686243
 H        -3.668527        -0.603874        -3.110935
 H        -4.088554         0.971565        -2.441613
 H        -2.679202         0.882628        -3.522143
 H        -3.034163        -1.268406         0.368202
 H        -3.952610        -1.701226        -1.158731
 H        -1.187516        -2.121090        -1.862983
 H         0.382502         2.116357        -0.510875
 H        -0.134802         1.034803        -1.937534
 H        -2.015931         1.060592         0.427210
 H        -2.399687         2.015676        -1.006977
