19
Iteration:  3265charge 0 multiplicity 1
 C        -2.679986        -0.010670        -3.093334
 C        -2.428260        -0.065976        -1.542232
 C        -3.271120        -1.024858        -0.542467
 C        -1.687427        -1.201565        -0.900998
 O        -0.723696        -1.121331         0.093612
 C         0.023866         0.114923         0.093122
 O         1.192177         0.079358        -0.145673
 C        -0.917665         1.271899         0.258482
 C        -1.990745         1.291609        -0.957820
 H        -2.876673        -1.023446        -3.504873
 H        -3.710392         0.529147        -3.237884
 H        -1.994272         0.428151        -3.790266
 H        -3.334256        -0.471559         0.427807
 H        -3.975510        -1.867605        -0.906863
 H        -1.351772        -2.010020        -1.683039
 H        -1.436849         1.315487         1.214751
 H        -0.396460         2.297097         0.274488
 H        -2.734244         1.957021        -0.742706
 H        -1.494919         1.596846        -1.848823
