19
Iteration:  1483charge 0 multiplicity 1
 C        -2.964064         0.029445        -2.956931
 C        -2.507045        -0.092507        -1.503432
 C        -3.095757        -1.242135        -0.601598
 C        -1.691159        -1.259145        -1.066562
 O        -0.638086        -1.083591        -0.092912
 C         0.060397         0.124935        -0.014324
 O         1.139812         0.185710         0.535921
 C        -0.698008         1.385623        -0.256394
 C        -2.079964         1.267526        -0.919122
 H        -3.531305        -0.883147        -3.193109
 H        -3.671681         0.932450        -3.010140
 H        -2.036998         0.072601        -3.656510
 H        -3.268237        -1.162034         0.498056
 H        -3.723031        -2.105565        -0.873233
 H        -1.416188        -2.058067        -1.763072
 H        -0.843612         1.960168         0.763226
 H         0.096376         1.984555        -0.824511
 H        -2.934792         1.702027        -0.264476
 H        -2.214466         1.946761        -1.787816
