19
Iteration:  1963
 C        -3.059744        -0.004303        -2.801546
 C        -2.496297        -0.014528        -1.411441
 C        -2.994336        -1.246416        -0.660442
 C        -1.604524        -1.163563        -1.132544
 O        -0.619193        -1.012123        -0.116812
 C        -0.001611         0.132311         0.031330
 O         0.958134         0.133155         0.794513
 C        -0.586234         1.238957        -0.692891
 C        -2.063105         1.252908        -0.824405
 H        -3.349511        -0.924949        -3.261599
 H        -3.927217         0.728914        -3.011799
 H        -2.193577         0.371322        -3.493310
 H        -3.116047        -1.058530         0.395405
 H        -3.727738        -1.822846        -1.185372
 H        -1.259542        -1.807751        -1.981336
 H        -0.187488         2.185315        -0.304356
 H        -0.273977         1.152831        -1.666043
 H        -2.491699         1.304912         0.174872
 H        -2.455920         2.179309        -1.435041
