19
Iteration:  1624charge 0 multiplicity 1
 C        -3.074288         0.136577        -2.789202
 C        -2.512441        -0.075088        -1.406817
 C        -2.989372        -1.221132        -0.593895
 C        -1.586783        -1.262565        -1.122439
 O        -0.479461        -1.113267        -0.237123
 C         0.009053         0.141061        -0.081730
 O         0.678608         0.269449         0.915956
 C        -0.479443         1.250477        -0.812521
 C        -1.987836         1.177987        -0.747322
 H        -3.503664        -0.759009        -3.155505
 H        -3.866357         0.925282        -2.759361
 H        -2.283768         0.290472        -3.549791
 H        -3.205777        -1.146398         0.519857
 H        -3.750409        -1.969881        -1.070438
 H        -1.385378        -1.801656        -2.061911
 H        -0.002215         2.132943        -0.339488
 H        -0.167839         1.137012        -1.855529
 H        -2.269435         1.425710         0.301115
 H        -2.530266         2.088643        -1.076844
