19
Iteration:  1403charge 0 multiplicity 1
 C        -2.833823         0.115418        -2.896632
 C        -2.503738        -0.098531        -1.440434
 C        -3.151098        -1.309262        -0.631023
 C        -1.691174        -1.301761        -1.034034
 O        -0.672214        -1.101803        -0.088215
 C         0.069059         0.132595         0.012558
 O         1.074843         0.197587         0.610248
 C        -0.614506         1.411916        -0.655609
 C        -2.143881         1.264127        -0.690754
 H        -2.693042        -0.850827        -3.539550
 H        -3.945060         0.375282        -3.049426
 H        -2.304735         0.952319        -3.364268
 H        -3.415423        -1.035399         0.367509
 H        -3.746217        -2.066921        -1.132803
 H        -1.411423        -2.035714        -1.830882
 H        -0.287443         2.177574        -0.044663
 H        -0.180633         1.516033        -1.590765
 H        -2.768774         1.296516         0.339215
 H        -2.486504         2.152378        -1.311022
