19
Iteration:    99
 C        -2.904264        -0.065964        -2.946528
 C        -2.431772        -0.029968        -1.499196
 C        -3.101455        -0.943630        -0.514790
 C        -1.726730        -1.296689        -0.993168
 O        -0.728170        -1.146128         0.038482
 C         0.006321         0.099091        -0.027916
 O         1.208401         0.148702         0.074990
 C        -0.982681         1.275277         0.172958
 C        -1.813301         1.297196        -1.109538
 H        -3.502435        -0.961296        -3.282323
 H        -3.437086         0.911181        -3.139522
 H        -1.975530        -0.145156        -3.568150
 H        -3.179564        -0.540707         0.456094
 H        -4.028283        -1.373716        -0.877805
 H        -1.519308        -2.108819        -1.702006
 H        -1.491925         0.986652         0.970395
 H        -0.504608         2.160115         0.335222
 H        -2.665411         2.057272        -0.930677
 H        -1.157357         1.535707        -1.910587
