19
Iteration:  4193charge 0 multiplicity 1
 C        -3.133355        -0.015566        -2.945558
 C        -2.556985         0.000840        -1.558333
 C        -2.939958        -0.887525        -0.333098
 C        -1.707804        -1.146544        -1.110663
 O        -0.472470        -1.193110        -0.333472
 C        -0.014198        -0.004006         0.133030
 O         1.143875         0.070101         0.562041
 C        -0.912996         1.188489         0.024478
 C        -1.927161         1.359457        -1.289612
 H        -3.718020        -0.911793        -3.114628
 H        -3.857730         0.795014        -3.099949
 H        -2.262588        -0.171995        -3.676554
 H        -2.696315        -0.598103         0.707425
 H        -3.761464        -1.590665        -0.351744
 H        -1.630202        -2.061624        -1.712628
 H        -1.534423         1.308748         0.914617
 H        -0.254942         2.007557         0.064829
 H        -2.610540         2.163555        -1.067290
 H        -1.326998         1.669375        -2.215037
