19
Iteration:  4221
 C        -3.211123        -0.083582        -2.827595
 C        -2.458081        -0.028855        -1.564286
 C        -3.043712        -0.916959        -0.479413
 C        -1.710232        -1.255091        -1.134048
 O        -0.433883        -1.181085        -0.428583
 C         0.073098         0.045837         0.022590
 O         0.989723         0.052158         0.753334
 C        -0.692785         1.373925        -0.070219
 C        -1.933302         1.346206        -1.160442
 H        -3.927000        -0.941512        -2.695166
 H        -3.870784         0.751678        -2.956475
 H        -2.644459        -0.404570        -3.640415
 H        -3.016597        -0.667678         0.566282
 H        -3.981984        -1.394775        -0.764450
 H        -1.717829        -2.169634        -1.776901
 H        -0.995379         1.647461         0.993717
 H         0.095826         2.146658        -0.334491
 H        -2.757476         2.077299        -0.841619
 H        -1.580805         1.821914        -2.035489
