19
Iteration:  4897charge 0 multiplicity 1
 C        -2.977182        -0.056517        -3.086913
 C        -2.451771        -0.077051        -1.551353
 C        -3.190772        -0.794350        -0.466602
 C        -1.777626        -1.256287        -0.894251
 O        -0.577516        -1.144759        -0.124614
 C         0.000515         0.083816         0.079830
 O         1.227106         0.145790         0.132905
 C        -1.013746         1.159262         0.246870
 C        -1.732303         1.262897        -1.079482
 H        -3.412030        -1.033840        -3.288348
 H        -3.773272         0.651508        -3.423298
 H        -2.095839         0.028110        -3.680428
 H        -3.455111        -0.259241         0.456822
 H        -4.056727        -1.327557        -0.818098
 H        -1.596197        -2.076070        -1.554261
 H        -1.604668         0.986195         1.111658
 H        -0.494538         2.115802         0.440543
 H        -2.426949         2.216166        -1.235981
 H        -0.982302         1.406041        -1.969758
