19
Iteration:  1621
 C        -3.049194         0.136742        -2.803422
 C        -2.497935        -0.071650        -1.410375
 C        -3.009178        -1.209718        -0.561715
 C        -1.603673        -1.267045        -1.123431
 O        -0.479773        -1.112518        -0.260175
 C         0.019457         0.117260        -0.092476
 O         0.692573         0.280669         0.919826
 C        -0.493810         1.223411        -0.772710
 C        -2.021883         1.201495        -0.748531
 H        -3.505742        -0.797500        -3.170654
 H        -3.857179         0.843277        -2.807067
 H        -2.339013         0.365689        -3.532495
 H        -3.095267        -1.089360         0.489937
 H        -3.644452        -1.961206        -1.022327
 H        -1.357606        -1.839367        -2.037910
 H        -0.113423         2.104355        -0.329537
 H        -0.087198         1.243284        -1.946718
 H        -2.254139         1.369742         0.237832
 H        -2.509474         2.094692        -1.116204
