19
Iteration:  2239charge 0 multiplicity 1
 C        -2.988700        -0.161671        -2.924178
 C        -2.452605        -0.031376        -1.515304
 C        -3.078866        -0.940227        -0.411661
 C        -1.766124        -1.215062        -1.051655
 O        -0.463419        -1.130719        -0.363778
 C         0.011787         0.041148         0.065518
 O         1.133133         0.113299         0.518858
 C        -0.919131         1.273526        -0.019613
 C        -1.963319         1.378974        -1.119276
 H        -3.117899        -1.165008        -3.259917
 H        -3.934273         0.390102        -3.106999
 H        -2.360129         0.426984        -3.603484
 H        -3.026628        -0.609685         0.682945
 H        -3.848802        -1.693840        -0.674373
 H        -1.726368        -2.114127        -1.613509
 H        -1.490938         1.450406         0.928329
 H        -0.136487         2.263655        -0.045163
 H        -2.787489         1.983676        -0.890178
 H        -1.620372         1.787283        -2.036441
