19
Iteration:  4710charge 0 multiplicity 1
 C        -3.460080        -0.100371        -2.697392
 C        -2.508409        -0.056956        -1.533518
 C        -2.840556        -0.759367        -0.379162
 C        -1.645340        -1.207370        -1.115492
 O        -0.274616        -0.971327        -0.737135
 C         0.086596         0.121702         0.095855
 O         0.723747        -0.197626         1.093337
 C        -0.784312         1.303912        -0.152978
 C        -1.709773         1.229027        -1.456957
 H        -3.900270        -1.120678        -2.839963
 H        -4.358865         0.545539        -2.588724
 H        -2.934773         0.170293        -3.560767
 H        -2.566428        -0.336501         0.602058
 H        -3.551077        -1.567815        -0.239534
 H        -1.770920        -2.115515        -1.701827
 H        -1.400285         1.539697         0.765670
 H        -0.134764         2.233138        -0.443263
 H        -2.345076         2.169281        -1.420619
 H        -1.101771         1.399713        -2.244712
