19
Iteration:  4652
 C        -3.241065        -0.082721        -2.756542
 C        -2.370808         0.010104        -1.521088
 C        -2.994600        -0.848319        -0.358497
 C        -1.606015        -1.268254        -1.159995
 O        -0.466248        -1.192170        -0.367490
 C         0.001126         0.109044        -0.016756
 O         0.938439        -0.051092         0.735271
 C        -0.847195         1.339811        -0.112248
 C        -1.766070         1.326317        -1.304199
 H        -3.302653        -0.988328        -3.358395
 H        -4.254859         0.263921        -2.550361
 H        -2.931394         0.693364        -3.554623
 H        -2.902266        -0.379595         0.600551
 H        -3.933845        -1.314916        -0.687398
 H        -1.843308        -2.059184        -1.869721
 H        -1.394329         1.367094         0.787492
 H        -0.331022         2.276457         0.032543
 H        -2.695613         1.976862        -1.107914
 H        -1.284810         1.600810        -2.270623
