19
Iteration:  2272
 C        -2.944051        -0.064326        -3.003904
 C        -2.453081        -0.036480        -1.554676
 C        -3.100473        -1.062119        -0.528410
 C        -1.729852        -1.260104        -1.007451
 O        -0.604263        -1.101158        -0.060790
 C         0.016530         0.067478         0.036417
 O         1.192478         0.125279         0.292394
 C        -0.874292         1.331055        -0.020143
 C        -1.981727         1.343923        -0.997443
 H        -3.461924        -0.956296        -3.328439
 H        -3.577554         0.816337        -3.096356
 H        -2.053300         0.023900        -3.633950
 H        -3.209974        -0.979246         0.576236
 H        -3.864809        -1.735361        -0.952247
 H        -1.537527        -2.167219        -1.563635
 H        -1.370332         1.334804         0.944505
 H        -0.223885         2.313196        -0.164563
 H        -2.879400         1.738568        -0.661686
 H        -1.649590         1.979807        -1.768395
