19
Iteration:  2797charge 0 multiplicity 1
 C        -2.521187        -0.120432        -3.012887
 C        -2.375533        -0.019824        -1.458299
 C        -3.231172        -1.028106        -0.552351
 C        -1.745854        -1.218916        -0.905330
 O        -0.677102        -1.192038         0.097939
 C        -0.080941         0.096085        -0.004506
 O         1.122668         0.163401        -0.268163
 C        -1.022048         1.265155         0.300056
 C        -1.993819         1.415047        -0.959502
 H        -3.283050        -0.938920        -3.072981
 H        -2.834460         0.850494        -3.383635
 H        -1.585138        -0.262934        -3.585006
 H        -3.392390        -0.662582         0.488508
 H        -4.010744        -1.646222        -0.894399
 H        -1.570022        -2.218836        -1.484773
 H        -1.637910         1.091436         1.284260
 H        -0.306289         2.156369         0.237182
 H        -2.671929         2.232681        -0.846222
 H        -1.420665         1.775316        -1.766096
