19
Iteration:  4647
 C        -3.223269        -0.078194        -2.780208
 C        -2.378804        -0.007906        -1.539483
 C        -3.040199        -0.863334        -0.384528
 C        -1.622781        -1.249495        -1.104678
 O        -0.487379        -1.205692        -0.338273
 C         0.015115         0.089678        -0.019175
 O         0.989376        -0.049123         0.694400
 C        -0.882220         1.360762        -0.100856
 C        -1.748463         1.368378        -1.312763
 H        -3.301994        -1.048139        -3.307835
 H        -4.222299         0.363751        -2.557967
 H        -2.861266         0.684764        -3.472204
 H        -3.052792        -0.498404         0.672429
 H        -3.888365        -1.513199        -0.625662
 H        -1.637678        -2.057407        -1.892554
 H        -1.493535         1.308074         0.874413
 H        -0.266614         2.288538         0.048446
 H        -2.618575         1.925056        -1.060652
 H        -1.336900         1.762766        -2.324518
