19
Iteration:  2615
 C        -3.432371        -0.152585        -2.589365
 C        -2.418168        -0.009077        -1.518357
 C        -2.699101        -0.930544        -0.258548
 C        -1.566811        -1.213749        -1.226723
 O        -0.206963        -1.043355        -0.763183
 C        -0.097598         0.133578         0.136496
 O         0.555154        -0.107308         1.089292
 C        -0.793529         1.431704        -0.216652
 C        -1.751704         1.270703        -1.525301
 H        -4.103957        -0.977509        -2.451299
 H        -3.909502         0.814085        -2.568764
 H        -3.064312        -0.202716        -3.635047
 H        -2.376069        -0.675497         0.835287
 H        -3.508624        -1.694959        -0.226604
 H        -1.618428        -2.141398        -1.919508
 H        -1.251801         1.726952         0.683519
 H        -0.038698         2.186319        -0.387893
 H        -2.571839         2.116107        -1.449135
 H        -1.241245         1.481984        -2.565436
