19
Iteration:  4482charge 0 multiplicity 1
 C        -2.956556        -0.018386        -3.049517
 C        -2.429921        -0.038850        -1.510880
 C        -3.107896        -0.893603        -0.418576
 C        -1.789698        -1.266038        -1.028363
 O        -0.668556        -1.220539        -0.055654
 C        -0.016681        -0.021427         0.109578
 O         1.221095         0.177504         0.181883
 C        -0.884403         1.207863         0.115361
 C        -1.852894         1.340578        -1.121992
 H        -2.895983        -1.004829        -3.605719
 H        -3.991685         0.395785        -3.150658
 H        -2.394255         0.702449        -3.604000
 H        -3.049631        -0.286742         0.442246
 H        -4.029229        -1.424886        -0.682676
 H        -1.656553        -2.006537        -1.806520
 H        -1.466696         1.186903         0.970827
 H        -0.175064         2.031975         0.252425
 H        -2.599320         2.057760        -0.819451
 H        -1.347937         1.893328        -2.012657
