19
Iteration:  2101charge 0 multiplicity 1
 C        -3.433500        -0.190963        -2.742022
 C        -2.476401        -0.049635        -1.539425
 C        -2.815631        -0.917024        -0.393703
 C        -1.571497        -1.223678        -1.215384
 O        -0.278497        -0.997513        -0.658904
 C        -0.001083         0.074091         0.160914
 O         0.769016        -0.051194         1.088639
 C        -0.679283         1.370519        -0.279621
 C        -1.916914         1.321180        -1.314102
 H        -3.670481        -1.330979        -2.867650
 H        -4.340252         0.445929        -2.639722
 H        -2.815173         0.276635        -3.620848
 H        -2.827747        -0.374862         0.576271
 H        -3.674930        -1.557047        -0.398526
 H        -1.596210        -2.094790        -1.856979
 H        -0.882618         1.786924         0.700324
 H         0.074853         1.897487        -0.792170
 H        -2.788406         1.783140        -0.714760
 H        -1.813741         1.916773        -2.227476
