19
Iteration:  3291
 C        -2.721002        -0.060864        -2.910392
 C        -2.409613         0.015871        -1.432702
 C        -3.138219        -1.090000        -0.663240
 C        -1.660523        -1.318539        -0.937337
 O        -0.821255        -1.063195         0.074339
 C        -0.027943         0.098484        -0.063456
 O         1.209478         0.019569        -0.012331
 C        -0.886098         1.313387         0.069841
 C        -2.018141         1.423827        -0.919737
 H        -3.106180        -0.877971        -3.463537
 H        -3.454974         0.661498        -3.138293
 H        -1.744149         0.102934        -3.491165
 H        -3.264072        -0.869230         0.392099
 H        -3.746422        -1.636552        -1.316057
 H        -1.334090        -2.099189        -1.601481
 H        -1.415028         1.421783         1.059423
 H        -0.321614         2.185235         0.070011
 H        -2.884236         1.902768        -0.234196
 H        -1.830629         1.905000        -1.837984
