19
Iteration:  4445
 C        -3.077644        -0.102963        -2.859103
 C        -2.456219        -0.020536        -1.563830
 C        -3.139781        -0.978748        -0.465811
 C        -1.743760        -1.196026        -0.992059
 O        -0.535550        -1.105167        -0.330128
 C         0.030937         0.059763         0.075681
 O         1.184415        -0.051613         0.517754
 C        -0.835903         1.330347        -0.038628
 C        -1.860163         1.405709        -1.183347
 H        -3.253504        -1.039289        -3.286740
 H        -3.987852         0.464006        -2.772962
 H        -2.394833         0.446968        -3.530121
 H        -3.394254        -0.565058         0.560315
 H        -4.036499        -1.449791        -0.891886
 H        -1.591636        -2.060616        -1.704855
 H        -1.557349         1.247064         0.906666
 H        -0.208852         2.278083         0.099991
 H        -2.726685         2.011969        -0.850227
 H        -1.453824         1.784202        -2.058723
