19
Iteration:  4994
 C        -2.805555        -0.079565        -2.954930
 C        -2.461787         0.003111        -1.511957
 C        -3.283277        -0.848243        -0.510722
 C        -1.729810        -1.206841        -0.888384
 O        -0.620951        -1.227658        -0.051472
 C         0.084645         0.066696        -0.107814
 O         1.258892         0.075829         0.191065
 C        -0.987042         1.217974         0.074464
 C        -1.929969         1.384601        -1.038178
 H        -2.976665        -1.207592        -3.166101
 H        -3.774534         0.504695        -3.360783
 H        -1.958056         0.414027        -3.534834
 H        -3.694485        -0.285795         0.340141
 H        -3.918633        -1.677762        -0.808558
 H        -1.674068        -2.041514        -1.535517
 H        -1.597590         0.915335         0.909196
 H        -0.461960         2.211597         0.162210
 H        -2.776324         1.991176        -0.905738
 H        -1.238959         1.735899        -1.933511
