19
Iteration:  3456
 C        -3.260155         0.336920        -2.606952
 C        -2.418358        -0.024628        -1.433247
 C        -3.027135        -1.226221        -0.695167
 C        -1.559146        -1.392070        -1.238918
 O        -0.511234        -1.181177        -0.245932
 C         0.075535         0.100855        -0.022332
 O         0.560589         0.334804         1.046723
 C        -0.374691         1.128242        -0.966020
 C        -1.851670         1.200367        -0.760027
 H        -3.846498        -0.462132        -3.120042
 H        -4.000575         1.018879        -2.210539
 H        -2.607242         0.851247        -3.443834
 H        -3.264198        -1.228901         0.344947
 H        -3.667189        -1.858843        -1.295037
 H        -1.411031        -2.105815        -2.003799
 H         0.111548         2.099011        -0.653430
 H        -0.065242         0.926340        -2.027138
 H        -2.091888         1.228311         0.446128
 H        -2.193724         2.179823        -1.010382
