19
Iteration:   237
 C        -3.278744        -0.141549        -2.861850
 C        -2.480832        -0.013531        -1.539437
 C        -2.979005        -0.870669        -0.313051
 C        -1.695143        -1.256723        -1.148557
 O        -0.438951        -1.139661        -0.503122
 C         0.091381         0.084945         0.042695
 O         1.062915         0.049788         0.780010
 C        -0.901506         1.259718        -0.016172
 C        -1.827681         1.370205        -1.294244
 H        -3.610043        -1.165261        -3.057351
 H        -4.086549         0.668538        -2.949426
 H        -2.550027         0.041098        -3.737180
 H        -2.925727        -0.438739         0.678006
 H        -3.936775        -1.424405        -0.394969
 H        -1.744872        -2.041463        -1.832566
 H        -1.539863         1.180018         0.938913
 H        -0.322815         2.289832        -0.018652
 H        -2.542808         2.201029        -1.150926
 H        -1.081694         1.521151        -2.187735
