19
Iteration:   203
 C        -3.007940        -0.146302        -2.956188
 C        -2.471473        -0.064540        -1.506547
 C        -3.128505        -0.893304        -0.380780
 C        -1.785307        -1.208416        -0.985403
 O        -0.503867        -1.111004        -0.447497
 C         0.032505         0.069999         0.135134
 O         1.180925         0.023330         0.534190
 C        -0.842126         1.294566        -0.038953
 C        -1.978928         1.346951        -1.107606
 H        -3.074689        -1.190337        -3.388215
 H        -4.059937         0.179023        -3.068449
 H        -2.269600         0.445230        -3.651048
 H        -3.431719        -0.239644         0.535774
 H        -3.879427        -1.707218        -0.728125
 H        -1.792998        -2.062257        -1.632574
 H        -1.104917         1.790120         1.010437
 H         0.075269         2.012989        -0.413688
 H        -2.795398         2.020484        -0.776348
 H        -1.536831         1.947018        -2.039544
