19
Iteration:  4695charge 0 multiplicity 1
 C        -3.518758        -0.104301        -2.866311
 C        -2.591047         0.005891        -1.596221
 C        -2.832693        -0.820687        -0.239858
 C        -1.622662        -1.147460        -1.145126
 O        -0.230666        -1.030941        -0.697214
 C        -0.020282        -0.027382         0.198249
 O         0.835005        -0.102337         1.041618
 C        -0.768641         1.321585        -0.183094
 C        -1.726928         1.265959        -1.356828
 H        -3.633993        -1.177411        -3.044832
 H        -4.444811         0.420320        -2.626919
 H        -3.061763         0.456791        -3.758698
 H        -2.866856        -0.272677         0.698347
 H        -3.723951        -1.433720        -0.386172
 H        -1.574720        -2.123837        -1.600305
 H        -1.199635         1.577704         0.734781
 H         0.001217         2.020877        -0.282718
 H        -2.336493         2.210846        -1.472830
 H        -1.075643         1.112528        -2.346294
