19
Iteration:   110charge 0 multiplicity 1
 C        -2.882997        -0.037217        -2.969485
 C        -2.399791        -0.052401        -1.519618
 C        -3.181959        -1.043470        -0.535757
 C        -1.763688        -1.311455        -0.971789
 O        -0.725390        -1.046351         0.013700
 C        -0.001145         0.144743         0.023816
 O         1.188795         0.101368         0.065060
 C        -0.901740         1.286239         0.157367
 C        -1.810748         1.284860        -1.042925
 H        -3.596458        -0.897347        -2.994997
 H        -3.554114         0.824360        -3.275254
 H        -2.111273        -0.091506        -3.773325
 H        -3.257385        -0.802050         0.509036
 H        -3.972788        -1.680319        -0.906623
 H        -1.391465        -2.064813        -1.673215
 H        -1.359188         1.197512         1.015655
 H        -0.432486         2.173221         0.166623
 H        -2.511520         2.185588        -1.073774
 H        -1.148539         1.606935        -1.804922
