19
Iteration:  1914charge 0 multiplicity 1
 C        -2.680931         0.258993        -2.858970
 C        -2.500452        -0.146336        -1.404292
 C        -3.217437        -1.156159        -0.608978
 C        -1.691980        -1.265316        -0.971827
 O        -0.651019        -1.084449        -0.101453
 C         0.023638         0.117952        -0.042943
 O         0.985660         0.333488         0.639053
 C        -0.578941         1.189911        -0.856453
 C        -2.173203         1.067253        -0.632850
 H        -2.393597        -0.510566        -3.614378
 H        -3.723418         0.373335        -3.060560
 H        -2.374213         1.166533        -3.227375
 H        -3.611589        -0.804050         0.389917
 H        -3.586903        -2.096039        -1.049353
 H        -1.500053        -2.165437        -1.559952
 H        -0.253111         2.019384        -0.227037
 H        -0.427075         1.120207        -2.044573
 H        -2.223678         0.799136         0.444364
 H        -2.660479         1.912084        -0.973578
