19
Iteration:  2588
 C        -3.573429        -0.223145        -2.625630
 C        -2.471106         0.005573        -1.578948
 C        -2.638957        -0.914086        -0.278233
 C        -1.547482        -1.159093        -1.260718
 O        -0.197679        -0.939885        -0.774706
 C        -0.084298         0.042989         0.169819
 O         0.509406        -0.117635         1.221216
 C        -0.655484         1.354607        -0.288703
 C        -1.775936         1.303492        -1.474291
 H        -3.906078        -1.294262        -2.623823
 H        -4.415363         0.523609        -2.510648
 H        -3.318822         0.099982        -3.659109
 H        -2.251753        -0.579920         0.640763
 H        -3.379724        -1.624629        -0.018130
 H        -1.461630        -2.007130        -1.863236
 H        -0.934142         1.903541         0.683651
 H         0.173791         1.933499        -0.763957
 H        -2.457511         2.133279        -1.384055
 H        -1.304441         1.493164        -2.450067
