19
Iteration:  3075
 C        -3.492302        -0.172631        -2.665843
 C        -2.497940        -0.091969        -1.487096
 C        -2.818599        -0.860104        -0.295747
 C        -1.570673        -1.220861        -1.248476
 O        -0.208099        -0.984242        -0.729581
 C         0.011564         0.037083         0.103957
 O         0.573412        -0.086977         1.150160
 C        -0.637398         1.406720        -0.292519
 C        -1.760059         1.289332        -1.410149
 H        -3.370193        -1.196255        -3.019396
 H        -4.568249         0.032338        -2.488132
 H        -3.298045         0.537931        -3.479133
 H        -2.622839        -0.449662         0.670241
 H        -3.769161        -1.400502        -0.503618
 H        -1.464393        -2.262894        -1.743675
 H        -0.984521         2.005566         0.608536
 H         0.166707         2.084144        -0.586254
 H        -2.523587         2.032478        -1.082870
 H        -1.448995         1.686703        -2.399242
