19
Iteration:  3725
 C        -3.002397        -0.074928        -2.914136
 C        -2.539429        -0.091314        -1.506477
 C        -3.147236        -0.846078        -0.442030
 C        -1.682357        -1.200470        -1.142598
 O        -0.588515        -1.142631        -0.143899
 C         0.069598         0.117627         0.001338
 O         1.219005         0.016440         0.322575
 C        -0.972295         1.247837         0.125460
 C        -1.857609         1.372706        -1.156897
 H        -3.599419        -0.931652        -3.257320
 H        -3.438679         1.011863        -3.190099
 H        -2.096961        -0.093704        -3.533697
 H        -2.966972        -0.506007         0.554734
 H        -3.950977        -1.593440        -0.507542
 H        -1.529133        -2.103706        -1.726456
 H        -1.637324         0.824249         0.941322
 H        -0.660733         2.148766         0.485260
 H        -2.676831         2.136585        -1.069048
 H        -1.170424         1.407357        -1.985390
