19
Iteration:  2476charge 0 multiplicity 1
 C        -3.371825        -0.162194        -2.856546
 C        -2.451388        -0.092490        -1.546950
 C        -2.948063        -0.940680        -0.464542
 C        -1.581662        -1.306427        -1.151654
 O        -0.369492        -1.089069        -0.399438
 C         0.038809         0.101167         0.091643
 O         0.972833         0.006853         0.866282
 C        -0.821890         1.401452        -0.159755
 C        -1.891667         1.390842        -1.254326
 H        -3.958265        -1.062191        -2.949152
 H        -3.982658         0.797758        -2.860660
 H        -2.788945        -0.116368        -3.775490
 H        -2.898111        -0.450530         0.521338
 H        -3.817581        -1.648455        -0.620325
 H        -1.493550        -2.246109        -1.765530
 H        -1.182515         1.872025         0.869018
 H        -0.251841         2.189301        -0.511402
 H        -2.694852         2.048330        -0.971737
 H        -1.467921         1.811795        -2.142772
