19
Iteration:  3314charge 0 multiplicity 1
 C        -2.793629        -0.011957        -2.936907
 C        -2.452834         0.027352        -1.503576
 C        -3.157179        -1.136418        -0.649555
 C        -1.717241        -1.171001        -1.011112
 O        -0.717174        -1.136559         0.122004
 C        -0.014090         0.040879        -0.012668
 O         1.187075         0.056406         0.123248
 C        -0.793589         1.346624        -0.048632
 C        -2.054604         1.331084        -0.883567
 H        -3.227545        -0.893944        -3.379347
 H        -3.418449         0.767184        -3.265704
 H        -1.777292         0.039248        -3.457925
 H        -3.193941        -0.919899         0.377271
 H        -3.843009        -1.698289        -1.227887
 H        -1.446705        -1.893618        -1.717674
 H        -0.976322         1.730938         0.992662
 H        -0.110839         2.110654        -0.409015
 H        -3.052423         1.620032        -0.341692
 H        -1.902075         1.884714        -1.788501
