19
Iteration:  4216
 C        -3.206925        -0.097151        -2.842434
 C        -2.462162        -0.009996        -1.529763
 C        -3.006995        -0.915657        -0.473050
 C        -1.729919        -1.227747        -1.141971
 O        -0.453674        -1.200578        -0.422549
 C         0.005346         0.057394         0.046004
 O         1.030277         0.095053         0.731749
 C        -0.706501         1.291895        -0.072921
 C        -1.914780         1.348184        -1.151943
 H        -3.959690        -0.901619        -2.813252
 H        -3.878245         0.799221        -2.999298
 H        -2.539326        -0.411877        -3.725220
 H        -3.006417        -0.557225         0.573386
 H        -3.966909        -1.364705        -0.741404
 H        -1.651531        -2.064194        -1.804305
 H        -0.996511         1.514987         0.933347
 H         0.017487         2.107058        -0.317171
 H        -2.677670         1.997480        -0.781915
 H        -1.521517         1.788055        -2.126388
