19
Iteration:  3186charge 0 multiplicity 1
 C        -2.974425        -0.184080        -3.026923
 C        -2.484993        -0.053878        -1.599297
 C        -3.118958        -0.830200        -0.398651
 C        -1.822250        -1.239167        -0.998024
 O        -0.546257        -1.106767        -0.312397
 C         0.013046         0.075787         0.076625
 O         1.160763         0.252427         0.320170
 C        -1.011492         1.154453         0.244830
 C        -1.743223         1.237429        -1.115248
 H        -3.572175        -1.106448        -3.247750
 H        -3.450438         0.803253        -3.307499
 H        -2.079088        -0.124886        -3.665686
 H        -3.120337        -0.317090         0.554084
 H        -3.996149        -1.412781        -0.399199
 H        -1.702250        -2.094866        -1.569313
 H        -1.641845         0.883435         1.094403
 H        -0.504151         2.173704         0.349438
 H        -2.344633         2.041825        -1.155948
 H        -0.936695         1.488780        -1.833453
