19
Iteration:   821
 C        -2.954043         0.131434        -2.787082
 C        -2.535240        -0.048629        -1.386668
 C        -3.083986        -1.132831        -0.623635
 C        -1.678351        -1.254325        -1.103889
 O        -0.491544        -1.122567        -0.261100
 C         0.032264         0.164453         0.015717
 O         0.893730         0.146753         0.896858
 C        -0.561856         1.279558        -0.899248
 C        -2.084513         1.178708        -0.697027
 H        -2.744755        -0.906244        -3.357797
 H        -4.076992         0.346742        -2.776578
 H        -2.460159         1.024762        -3.263325
 H        -3.212860        -0.886796         0.374400
 H        -3.930560        -1.686787        -0.975994
 H        -1.379208        -1.927664        -1.991865
 H        -0.142208         2.209574        -0.672941
 H        -0.312120         1.071378        -1.872564
 H        -2.283811         0.985182         0.317369
 H        -2.730500         2.149934        -1.003954
