19
Iteration:  4148charge 0 multiplicity 1
 C        -3.073054        -0.095616        -2.933895
 C        -2.461276        -0.013944        -1.518344
 C        -3.151486        -0.780198        -0.463083
 C        -1.835219        -1.263029        -0.952416
 O        -0.497297        -1.136229        -0.427296
 C         0.016297        -0.016862         0.205773
 O         1.173040         0.250002         0.316154
 C        -0.942907         1.170627         0.218478
 C        -1.684239         1.199933        -1.172156
 H        -3.208607        -1.108952        -3.316166
 H        -4.074545         0.284264        -2.837620
 H        -2.415664         0.357077        -3.728856
 H        -3.543494        -0.215092         0.354638
 H        -4.031047        -1.278939        -0.852309
 H        -1.891788        -2.158371        -1.650026
 H        -1.642450         1.027211         1.079111
 H        -0.374928         1.925691         0.443495
 H        -2.342208         2.045347        -1.222789
 H        -0.919140         1.479436        -1.958487
