19
Iteration:  3209
 C        -2.833817        -0.136655        -3.024310
 C        -2.381365        -0.000651        -1.546987
 C        -3.107396        -0.762684        -0.392815
 C        -1.776067        -1.252830        -0.913682
 O        -0.511274        -1.233865        -0.221616
 C        -0.074883         0.041234         0.141398
 O         1.109830         0.235738         0.034217
 C        -1.133286         1.137629         0.322024
 C        -1.774270         1.343717        -1.150771
 H        -3.010657        -1.230569        -3.109600
 H        -3.695200         0.505804        -3.400023
 H        -1.992329         0.106796        -3.643124
 H        -3.378760        -0.362953         0.572543
 H        -3.981508        -1.401956        -0.640190
 H        -1.819462        -2.228058        -1.398005
 H        -1.878828         0.863372         1.040004
 H        -0.596088         2.134463         0.537606
 H        -2.466171         2.098959        -1.193369
 H        -1.004969         1.636016        -1.846164
