19
Iteration:  3581
 C        -3.122098         0.049817        -2.911399
 C        -2.515131        -0.007294        -1.515225
 C        -2.989126        -1.004008        -0.462669
 C        -1.661754        -1.229545        -1.093742
 O        -0.528950        -1.235088        -0.237753
 C         0.044979         0.034202         0.048841
 O         1.059987         0.004636         0.693960
 C        -0.686809         1.372886        -0.244172
 C        -2.077892         1.340307        -1.129155
 H        -3.651073        -0.884243        -3.177594
 H        -3.906064         0.893981        -3.006072
 H        -2.387627         0.320562        -3.658060
 H        -3.080843        -0.798483         0.595184
 H        -3.740357        -1.803610        -0.697990
 H        -1.632844        -2.028945        -1.838391
 H        -0.657927         1.874165         0.735686
 H         0.102761         1.936740        -0.859046
 H        -2.800008         2.048695        -0.509324
 H        -1.871124         2.027190        -2.034670
