19
Iteration:  2392
 C        -2.875478        -0.144433        -3.099136
 C        -2.435031        -0.074137        -1.580978
 C        -3.168641        -0.722261        -0.440341
 C        -1.815744        -1.275861        -0.883335
 O        -0.510691        -1.155758        -0.225437
 C         0.012641         0.054236         0.085049
 O         1.209306         0.323249         0.107409
 C        -1.081251         1.120093         0.363711
 C        -1.827761         1.210041        -1.074925
 H        -3.045049        -1.214000        -3.382422
 H        -3.886600         0.327049        -3.222152
 H        -2.033984         0.236437        -3.729882
 H        -3.271643        -0.172901         0.490150
 H        -4.063065        -1.326006        -0.700044
 H        -1.780275        -2.241300        -1.504466
 H        -1.630618         0.765871         1.152964
 H        -0.575725         2.134084         0.561335
 H        -2.685086         1.994623        -1.113898
 H        -1.127294         1.397148        -1.960742
