19
Iteration:  2798
 C        -2.518371        -0.116756        -3.005440
 C        -2.388477        -0.018237        -1.458509
 C        -3.216759        -1.026348        -0.550656
 C        -1.740904        -1.213908        -0.904684
 O        -0.682405        -1.190143         0.097681
 C        -0.081455         0.096456        -0.008429
 O         1.123011         0.159780        -0.269751
 C        -1.028385         1.270833         0.294466
 C        -1.988978         1.404964        -0.961160
 H        -3.280243        -0.935459        -3.090086
 H        -2.836317         0.852639        -3.395412
 H        -1.555436        -0.271708        -3.588050
 H        -3.383768        -0.658426         0.487404
 H        -4.051584        -1.625313        -0.897712
 H        -1.559312        -2.205471        -1.465285
 H        -1.650271         1.054550         1.310442
 H        -0.315685         2.150569         0.255365
 H        -2.656801         2.183162        -0.844940
 H        -1.430551         1.764396        -1.746590
