19
Iteration:   254
 C        -3.365748        -0.061897        -2.775984
 C        -2.450625        -0.001204        -1.578947
 C        -2.806936        -0.836939        -0.383927
 C        -1.677151        -1.194823        -1.148674
 O        -0.361614        -1.129642        -0.490011
 C        -0.093268         0.010258         0.177750
 O         0.984657         0.066262         0.736803
 C        -0.956438         1.255918        -0.056620
 C        -1.715387         1.286507        -1.380119
 H        -4.024753        -0.983594        -2.802283
 H        -4.007409         0.773935        -2.690407
 H        -2.853775        -0.208095        -3.705914
 H        -2.508427        -0.553283         0.715283
 H        -3.696825        -1.550008        -0.386694
 H        -1.659306        -2.163667        -1.724026
 H        -1.769959         1.255685         0.792858
 H        -0.302802         2.043276         0.207474
 H        -2.504969         2.040461        -1.255580
 H        -1.069518         1.453616        -2.195335
