19
Iteration:  3269charge 0 multiplicity 1
 C        -2.686426         0.017655        -3.054945
 C        -2.422362        -0.052783        -1.538118
 C        -3.273775        -1.044047        -0.545690
 C        -1.672025        -1.202776        -0.930610
 O        -0.723784        -1.100397         0.097017
 C        -0.009256         0.124892         0.087085
 O         1.199172         0.041082        -0.134099
 C        -0.897002         1.314505         0.230026
 C        -2.021041         1.258537        -0.975250
 H        -2.918785        -0.960770        -3.416181
 H        -3.642423         0.396052        -3.181316
 H        -1.850378         0.264358        -3.779691
 H        -3.356011        -0.545533         0.428972
 H        -3.872661        -1.799029        -0.959913
 H        -1.308898        -1.936887        -1.643187
 H        -1.344119         1.224873         1.277004
 H        -0.423513         2.235985         0.218432
 H        -2.923539         1.997243        -0.689719
 H        -1.410590         1.666031        -1.786065
