19
Iteration:  2633charge 0 multiplicity 1
 C        -3.411379        -0.110765        -2.684966
 C        -2.443541        -0.089007        -1.529848
 C        -2.719558        -0.932803        -0.262418
 C        -1.602078        -1.311517        -1.188457
 O        -0.282702        -0.992808        -0.763196
 C        -0.080542         0.074367         0.095323
 O         0.651117         0.051022         1.017220
 C        -0.820214         1.313894        -0.173003
 C        -1.683558         1.297507        -1.368892
 H        -4.148640        -0.959539        -2.501509
 H        -4.004456         0.800112        -2.849763
 H        -3.040003        -0.218196        -3.740253
 H        -2.627792        -0.546902         0.668304
 H        -3.669882        -1.449161        -0.290788
 H        -1.680928        -2.206276        -1.746127
 H        -1.492196         1.517269         0.735223
 H        -0.037555         2.148258        -0.257153
 H        -2.344322         2.159455        -1.438793
 H        -0.940790         1.508800        -2.146820
