19
Iteration:  3888
 C        -3.070256         0.401351        -2.652955
 C        -2.493904        -0.109554        -1.405395
 C        -3.071674        -1.286619        -0.598635
 C        -1.606180        -1.236521        -1.211154
 O        -0.625182        -1.107742        -0.223510
 C        -0.007487         0.098473         0.010510
 O         0.726526         0.311919         0.960204
 C        -0.385321         1.124056        -0.981739
 C        -1.924398         1.099096        -0.761282
 H        -3.675090        -0.399504        -2.990377
 H        -3.704219         1.287651        -2.433792
 H        -2.371724         0.712932        -3.389483
 H        -2.779801        -1.327588         0.446661
 H        -3.747185        -1.984805        -0.999796
 H        -1.366502        -1.886302        -2.061131
 H         0.142629         2.157888        -0.928302
 H        -0.240370         0.628330        -2.104312
 H        -2.142444         1.128626         0.387185
 H        -2.265428         1.923688        -1.336238
