19
Iteration:  3133
 C        -3.245032        -0.075883        -2.902045
 C        -2.501384        -0.043778        -1.573625
 C        -2.896116        -0.942737        -0.374394
 C        -1.670071        -1.251280        -1.200020
 O        -0.467019        -1.130441        -0.419092
 C         0.031202         0.015846         0.101321
 O         1.002623         0.115976         0.841194
 C        -0.816883         1.351916        -0.126141
 C        -1.869369         1.285952        -1.244075
 H        -3.915345        -0.945188        -2.865932
 H        -3.979642         0.734142        -2.814739
 H        -2.688328        -0.137456        -3.752453
 H        -2.688912        -0.539671         0.643419
 H        -3.780425        -1.538982        -0.305510
 H        -1.585989        -2.080614        -1.825899
 H        -1.300720         1.523250         0.792679
 H        -0.048198         2.163474        -0.392482
 H        -2.757263         2.027813        -1.075760
 H        -1.431554         1.528648        -2.175671
