19
Iteration:  2289
 C        -2.889373        -0.018487        -2.938246
 C        -2.413342        -0.109792        -1.503360
 C        -3.155044        -1.082156        -0.647522
 C        -1.643492        -1.264086        -0.936847
 O        -0.686682        -1.103383         0.022923
 C         0.073884         0.154451         0.012205
 O         1.252449         0.087093         0.197531
 C        -0.866331         1.304456         0.064644
 C        -2.089052         1.344343        -1.078122
 H        -3.554757        -0.899884        -3.075429
 H        -3.454710         0.970747        -3.091051
 H        -2.197465        -0.037804        -3.796561
 H        -3.551844        -0.591740         0.263482
 H        -3.834612        -1.837835        -1.032935
 H        -1.386396        -1.966253        -1.743213
 H        -1.355350         1.244820         1.116011
 H        -0.273494         2.120172         0.075496
 H        -2.988786         2.045731        -0.652284
 H        -1.877846         1.851191        -2.111351
