19
Iteration:  1418
 C        -2.800906         0.017760        -2.940083
 C        -2.554060        -0.074425        -1.414216
 C        -3.087785        -1.131437        -0.572894
 C        -1.705118        -1.236761        -1.085930
 O        -0.624099        -1.064713        -0.131242
 C         0.030722         0.120821         0.012288
 O         1.094383         0.158630         0.554655
 C        -0.698442         1.319667        -0.489881
 C        -2.210711         1.186251        -0.766444
 H        -2.446419        -0.825544        -3.463569
 H        -3.820938         0.323642        -3.218111
 H        -2.050609         0.707333        -3.404104
 H        -3.189448        -1.005134         0.497206
 H        -3.864194        -1.771596        -0.920811
 H        -1.379822        -1.989154        -1.758880
 H        -0.464736         2.252151         0.218073
 H        -0.091653         1.694495        -1.423044
 H        -2.558507         1.223722         0.225185
 H        -2.574365         2.051426        -1.281767
