19
Iteration:   627charge 0 multiplicity 1
 C        -3.020060        -0.086679        -2.897636
 C        -2.445448        -0.034484        -1.509911
 C        -3.078669        -0.938167        -0.500479
 C        -1.712411        -1.250315        -0.995394
 O        -0.535674        -1.136556        -0.269666
 C         0.013378         0.081165         0.094745
 O         1.158702        -0.022937         0.530918
 C        -0.761003         1.348474        -0.167648
 C        -2.091827         1.395684        -1.091048
 H        -3.452105        -1.054648        -3.303986
 H        -3.747831         0.722166        -2.904893
 H        -2.208256         0.065270        -3.667328
 H        -3.155835        -0.643605         0.504370
 H        -3.824531        -1.575860        -0.829275
 H        -1.546396        -2.173886        -1.688186
 H        -1.071135         1.727799         0.773424
 H        -0.094262         2.136070        -0.600768
 H        -3.035195         1.782548        -0.526615
 H        -1.898691         1.958653        -1.974069
