19
Iteration:  4446
 C        -3.072000        -0.097162        -2.868286
 C        -2.455200        -0.030970        -1.560085
 C        -3.133077        -0.970636        -0.465491
 C        -1.735502        -1.203597        -0.991785
 O        -0.541690        -1.098048        -0.320465
 C         0.031844         0.054657         0.075550
 O         1.178092        -0.052139         0.504251
 C        -0.840891         1.333896        -0.026893
 C        -1.861342         1.404154        -1.173770
 H        -3.251662        -1.040993        -3.309898
 H        -4.010788         0.438781        -2.786752
 H        -2.398770         0.445139        -3.514852
 H        -3.421652        -0.565584         0.538233
 H        -4.031923        -1.430027        -0.858103
 H        -1.599388        -2.045704        -1.744211
 H        -1.521617         1.253302         0.888840
 H        -0.185979         2.273952         0.080727
 H        -2.722532         2.005678        -0.865420
 H        -1.458164         1.764182        -2.090807
