19
Iteration:  3238charge 0 multiplicity 1
 C        -2.719640        -0.056065        -2.961083
 C        -2.332041        -0.021685        -1.524573
 C        -3.200426        -0.794531        -0.534871
 C        -1.755655        -1.347053        -0.861832
 O        -0.632954        -1.206273         0.005799
 C        -0.063020         0.087164        -0.019528
 O         1.118425         0.237943        -0.091317
 C        -1.010431         1.137496         0.252945
 C        -1.855952         1.301087        -1.035745
 H        -2.677881        -1.153779        -3.182271
 H        -3.677724         0.369306        -3.274850
 H        -2.074477         0.541935        -3.723111
 H        -3.463730        -0.464409         0.457778
 H        -3.964269        -1.337309        -1.013993
 H        -1.646617        -2.251884        -1.368358
 H        -1.653979         0.804701         1.110722
 H        -0.588040         2.062198         0.569096
 H        -2.761861         2.037012        -0.920589
 H        -1.235313         1.795987        -1.927448
