19
Iteration:  2071
 C        -3.205948        -0.236101        -2.838934
 C        -2.530815         0.000764        -1.469451
 C        -2.829497        -0.914106        -0.345399
 C        -1.610473        -1.180288        -1.156688
 O        -0.320476        -1.061860        -0.646219
 C        -0.058848         0.057535         0.056432
 O         0.707831        -0.050357         0.977536
 C        -0.636108         1.398744        -0.252061
 C        -1.986001         1.364761        -1.179338
 H        -3.129498        -1.303650        -2.920377
 H        -4.302730        -0.050979        -2.758729
 H        -2.782236         0.315352        -3.601395
 H        -2.595122        -0.379101         0.611168
 H        -3.480102        -1.696533        -0.141052
 H        -1.843948        -2.039425        -1.878807
 H        -0.415704         2.097767         0.605860
 H         0.137417         1.807705        -1.184742
 H        -2.750276         1.816850        -0.608840
 H        -1.971288         1.916497        -2.045664
