19
Iteration:  1824charge 0 multiplicity 1
 C        -2.989868        -0.028245        -2.993171
 C        -2.472329        -0.085890        -1.560913
 C        -3.045940        -1.277196        -0.689551
 C        -1.576524        -1.163006        -1.025996
 O        -0.737754        -1.018342         0.081112
 C         0.037747         0.176638         0.052003
 O         1.163187         0.051656         0.460118
 C        -0.670195         1.446979        -0.360176
 C        -2.146236         1.242663        -0.801105
 H        -3.599473        -0.902702        -3.144291
 H        -3.647590         0.787303        -2.876591
 H        -2.274723         0.198468        -3.783575
 H        -3.393854        -0.988967         0.238358
 H        -3.656777        -1.974711        -1.176462
 H        -1.231703        -1.898834        -1.805569
 H        -0.514639         2.218889         0.459361
 H        -0.164395         1.747173        -1.498030
 H        -2.821255         1.097227         0.084941
 H        -2.366137         2.027909        -1.447342
