19
Iteration:  3235
 C        -2.712023        -0.072046        -2.966618
 C        -2.305403        -0.035466        -1.487381
 C        -3.186753        -0.777196        -0.548625
 C        -1.752763        -1.319653        -0.853596
 O        -0.625946        -1.218551        -0.019629
 C        -0.081666         0.082583        -0.024422
 O         1.128801         0.242975        -0.082513
 C        -1.041730         1.136252         0.253525
 C        -1.844839         1.306016        -1.047281
 H        -2.733372        -1.108015        -3.143044
 H        -3.666098         0.372981        -3.144021
 H        -2.130829         0.514111        -3.690298
 H        -3.498677        -0.432542         0.468450
 H        -4.090657        -1.327633        -0.924310
 H        -1.687485        -2.275364        -1.470902
 H        -1.744858         0.774607         1.048077
 H        -0.566827         2.038948         0.543983
 H        -2.745847         2.078361        -0.953387
 H        -1.298038         1.715565        -1.866289
