19
Iteration:  2628charge 0 multiplicity 1
 C        -3.424547        -0.112032        -2.654969
 C        -2.370192        -0.100727        -1.567170
 C        -2.744584        -0.964732        -0.248892
 C        -1.604490        -1.242626        -1.169464
 O        -0.275874        -0.989726        -0.767044
 C        -0.081419         0.025967         0.042123
 O         0.613417         0.022527         1.050457
 C        -0.832190         1.374079        -0.202424
 C        -1.682424         1.308206        -1.366369
 H        -4.140337        -0.881585        -2.456996
 H        -4.071536         0.810044        -2.725696
 H        -2.950936        -0.300803        -3.616927
 H        -2.403057        -0.500547         0.790200
 H        -3.668332        -1.562218        -0.272103
 H        -1.576505        -2.155050        -1.830750
 H        -1.456953         1.609766         0.739904
 H        -0.057327         2.094728        -0.302468
 H        -2.450483         2.102536        -1.483232
 H        -0.971580         1.386743        -2.221890
