19
Iteration:  2494charge 0 multiplicity 1
 C        -3.363167        -0.138382        -2.760338
 C        -2.457971        -0.064392        -1.598529
 C        -2.881418        -0.959481        -0.420110
 C        -1.616992        -1.209470        -1.136877
 O        -0.327926        -1.075490        -0.559079
 C        -0.032329         0.084491         0.160124
 O         0.854602         0.028140         0.989065
 C        -0.687335         1.382539        -0.281132
 C        -1.911031         1.295013        -1.289086
 H        -3.696007        -1.201811        -2.738596
 H        -4.196020         0.505284        -2.630383
 H        -2.869614         0.178662        -3.717928
 H        -2.875827        -0.691167         0.624089
 H        -3.742364        -1.617972        -0.681313
 H        -1.606075        -2.054422        -1.755737
 H        -1.025290         1.747305         0.711304
 H         0.182630         2.141784        -0.459691
 H        -2.751131         1.894823        -0.910819
 H        -1.662391         1.755758        -2.255404
