19
Iteration:  1222
 C        -3.344937        -0.088202        -2.805937
 C        -2.520132        -0.015812        -1.529472
 C        -2.850085        -1.048995        -0.478095
 C        -1.596177        -1.233417        -1.217011
 O        -0.405809        -1.121341        -0.406328
 C        -0.020434         0.072798         0.103110
 O         0.885653         0.123590         0.933712
 C        -0.641038         1.322834        -0.339768
 C        -1.981590         1.316880        -1.136441
 H        -3.713098        -1.056997        -2.942947
 H        -4.285252         0.495000        -2.839540
 H        -2.673727         0.359982        -3.627584
 H        -2.686505        -0.827735         0.522982
 H        -3.669742        -1.667496        -0.725717
 H        -1.397519        -2.031690        -1.926188
 H        -0.739490         1.778330         0.733344
 H         0.140726         1.763188        -0.824356
 H        -2.809240         1.944911        -0.708843
 H        -1.615441         1.878849        -2.096209
