19
Iteration:  4936charge 0 multiplicity 1
 C        -2.706771        -0.055019        -2.984978
 C        -2.349836         0.036116        -1.480154
 C        -3.120335        -0.862020        -0.413611
 C        -1.762130        -1.373418        -0.869848
 O        -0.649243        -1.248179        -0.068769
 C        -0.141758         0.062525        -0.030064
 O         1.076320         0.173433        -0.013955
 C        -0.980015         1.225559         0.195199
 C        -1.876631         1.387700        -1.117453
 H        -3.547027        -0.805887        -3.198568
 H        -3.019273         0.957391        -3.300047
 H        -1.797479        -0.410738        -3.543594
 H        -3.175593        -0.518506         0.615604
 H        -4.088574        -1.210284        -0.803504
 H        -1.705884        -2.226946        -1.641859
 H        -1.552357         0.965906         1.209609
 H        -0.281853         2.061629         0.450971
 H        -2.539474         2.194462        -1.129280
 H        -1.105764         1.715204        -1.783389
