19
Iteration:  4315charge 0 multiplicity 1
 C        -3.467121        -0.097829        -2.662664
 C        -2.419691        -0.021085        -1.583548
 C        -2.746556        -0.867725        -0.371104
 C        -1.607945        -1.177297        -1.196295
 O        -0.373168        -1.055366        -0.611739
 C        -0.004439         0.064385         0.130193
 O         0.765198        -0.200257         1.002281
 C        -0.717664         1.383149        -0.232074
 C        -1.823670         1.312352        -1.347947
 H        -3.634287        -1.151630        -3.040397
 H        -4.449893         0.240252        -2.188358
 H        -3.241617         0.586202        -3.535741
 H        -2.591505        -0.329617         0.573197
 H        -3.763025        -1.306293        -0.478219
 H        -1.447490        -2.034855        -1.819394
 H        -1.078212         1.707233         0.680852
 H         0.092314         2.137571        -0.428047
 H        -2.690622         2.052111        -1.306266
 H        -1.244696         1.612940        -2.390858
