19
Iteration:  1304charge 0 multiplicity 1
 C        -3.043738         0.093280        -2.836074
 C        -2.513954        -0.078124        -1.422971
 C        -3.046638        -1.154510        -0.538427
 C        -1.595332        -1.298701        -1.160846
 O        -0.464834        -1.176696        -0.283637
 C         0.004984         0.174146         0.041142
 O         0.839647         0.218278         0.878025
 C        -0.562311         1.249589        -0.727121
 C        -2.074774         1.315318        -0.765275
 H        -3.143513        -0.889049        -3.442400
 H        -3.968412         0.695831        -2.949036
 H        -2.363450         0.489599        -3.543815
 H        -3.073080        -1.057739         0.568087
 H        -3.963224        -1.713087        -0.880313
 H        -1.416624        -2.086816        -1.982613
 H        -0.182062         2.136222        -0.397044
 H        -0.182325         1.211747        -1.727895
 H        -2.523597         1.362519         0.289325
 H        -2.427074         2.161726        -1.361936
