19
Iteration:  2889charge 0 multiplicity 1
 C        -2.924746        -0.140206        -3.037189
 C        -2.487453        -0.060098        -1.534106
 C        -3.125619        -0.855868        -0.465260
 C        -1.693148        -1.286928        -0.976771
 O        -0.634916        -1.143021        -0.137570
 C         0.024778         0.156075        -0.026683
 O         1.211877         0.108521         0.264475
 C        -1.008096         1.243309         0.159214
 C        -1.857516         1.373175        -1.097050
 H        -2.844444        -1.176401        -3.261096
 H        -3.960252         0.202664        -3.157970
 H        -2.336388         0.507962        -3.704623
 H        -3.023042        -0.616573         0.610792
 H        -3.920811        -1.583618        -0.725531
 H        -1.675043        -2.175725        -1.538779
 H        -1.609720         0.933479         1.089218
 H        -0.455443         2.156985         0.471958
 H        -2.561529         2.068842        -1.082684
 H        -1.205160         1.670242        -1.852871
