19
Iteration:  4784
 C        -3.523993        -0.069208        -2.709824
 C        -2.465364        -0.038308        -1.605284
 C        -2.859613        -0.963878        -0.358646
 C        -1.632412        -1.260841        -1.138864
 O        -0.287481        -1.008347        -0.632371
 C        -0.007933         0.092410         0.150051
 O         0.806391        -0.115162         1.071729
 C        -0.702738         1.334334        -0.214748
 C        -1.715104         1.345080        -1.463132
 H        -4.316397        -0.862241        -2.566988
 H        -4.079687         0.901295        -2.726567
 H        -3.121549        -0.094345        -3.768438
 H        -2.974515        -0.545647         0.672104
 H        -3.725407        -1.578728        -0.608353
 H        -1.611198        -2.263885        -1.532905
 H        -1.366028         1.625314         0.536315
 H         0.000502         2.132640        -0.352070
 H        -2.393823         2.179101        -1.089715
 H        -1.044136         1.786515        -2.353859
