19
Iteration:  1180
 C        -3.370466        -0.054980        -2.728068
 C        -2.421899        -0.087468        -1.576462
 C        -2.888705        -0.970402        -0.424523
 C        -1.570976        -1.275868        -1.187961
 O        -0.374485        -1.029313        -0.514703
 C        -0.053977         0.116875         0.128524
 O         0.916728         0.055758         0.865710
 C        -0.820401         1.312412        -0.103284
 C        -1.815160         1.274579        -1.313332
 H        -4.049843        -0.902959        -2.694746
 H        -4.085380         0.785686        -2.807292
 H        -2.836158        -0.132153        -3.755208
 H        -2.777109        -0.770319         0.628955
 H        -3.668898        -1.673788        -0.696021
 H        -1.552251        -2.214462        -1.694555
 H        -1.386128         1.618507         0.725034
 H        -0.225333         2.147146        -0.245304
 H        -2.637346         2.088206        -1.118280
 H        -1.373976         1.436730        -2.343370
