19
Iteration:  3976
 C        -3.103795         0.039898        -2.981738
 C        -2.548753        -0.007182        -1.523481
 C        -3.095918        -1.101247        -0.475374
 C        -1.681245        -1.188362        -0.977985
 O        -0.490468        -1.183236        -0.253158
 C         0.077389         0.026082         0.060728
 O         1.058700        -0.005630         0.751844
 C        -0.605040         1.375220        -0.529634
 C        -2.087737         1.371292        -0.915039
 H        -2.992877        -0.877451        -3.494834
 H        -4.129651         0.398750        -3.059606
 H        -2.598319         0.851646        -3.462615
 H        -3.349857        -0.704802         0.466330
 H        -3.763309        -1.808873        -0.885302
 H        -1.484012        -1.976139        -1.736323
 H        -0.457376         1.951634         0.425763
 H         0.035313         1.823742        -1.430841
 H        -2.732735         1.537913         0.069970
 H        -2.298597         2.214072        -1.600008
