19
Iteration:  3827charge 0 multiplicity 1
 C        -3.049042         0.029034        -2.819321
 C        -2.487593         0.014029        -1.428252
 C        -3.118044        -1.065548        -0.576757
 C        -1.682823        -1.268058        -1.188920
 O        -0.556649        -1.144183        -0.342476
 C         0.004719         0.043076         0.109139
 O         0.985904         0.084548         0.862332
 C        -0.526106         1.283933        -0.655851
 C        -2.039134         1.405902        -0.797397
 H        -3.006915        -0.963539        -3.339550
 H        -4.125361         0.179111        -2.725095
 H        -2.569158         0.723955        -3.548306
 H        -2.980076        -1.048621         0.526853
 H        -3.970607        -1.673085        -0.871315
 H        -1.463538        -2.135582        -1.852219
 H        -0.115512         2.168979        -0.228497
 H        -0.134886         1.196237        -1.578128
 H        -2.506219         1.504397         0.144235
 H        -2.445695         2.281153        -1.394694
