19
Iteration:  1781charge 0 multiplicity 1
 C        -2.859414         0.011056        -2.997807
 C        -2.478529        -0.099176        -1.457808
 C        -3.178213        -1.173595        -0.538315
 C        -1.662210        -1.276399        -1.016326
 O        -0.530419        -1.151154        -0.154681
 C        -0.000725         0.102252         0.062447
 O         1.082056         0.188689         0.511688
 C        -0.703625         1.388123        -0.362253
 C        -2.163692         1.281093        -0.841172
 H        -3.397975        -0.880201        -3.423858
 H        -3.672455         0.719229        -2.945989
 H        -2.026779         0.316007        -3.668753
 H        -3.328531        -0.863733         0.429612
 H        -3.816468        -1.945139        -0.888201
 H        -1.408660        -1.971776        -1.859647
 H        -0.610295         2.192365         0.373844
 H        -0.023330         1.938030        -1.137569
 H        -2.870272         1.676414         0.008707
 H        -2.337667         2.000036        -1.626106
