19
Iteration:  2989charge 0 multiplicity 1
 C        -3.544293        -0.170289        -2.687364
 C        -2.482617        -0.007413        -1.553922
 C        -2.697848        -0.886407        -0.339878
 C        -1.524641        -1.240999        -1.207367
 O        -0.249690        -0.981144        -0.727535
 C        -0.164658         0.040656         0.188591
 O         0.678382        -0.068953         1.071130
 C        -0.821615         1.382874        -0.182024
 C        -1.651764         1.301409        -1.419271
 H        -4.197811        -1.014797        -2.475134
 H        -4.237388         0.702852        -2.612173
 H        -3.089273        -0.317157        -3.614843
 H        -2.323064        -0.622541         0.656675
 H        -3.598395        -1.510000        -0.229400
 H        -1.416253        -2.117417        -1.982249
 H        -1.318878         1.820928         0.693162
 H         0.157926         1.935227        -0.516857
 H        -2.263054         2.259371        -1.526114
 H        -1.148987         1.213693        -2.322328
