19
Iteration:   258charge 0 multiplicity 1
 C        -3.412353        -0.063205        -2.746976
 C        -2.432446        -0.011854        -1.581079
 C        -2.808642        -0.806493        -0.387945
 C        -1.635516        -1.219472        -1.156029
 O        -0.336377        -1.108220        -0.486230
 C        -0.125029         0.005858         0.179176
 O         0.947078         0.069013         0.726549
 C        -0.972202         1.227406        -0.017235
 C        -1.698001         1.275035        -1.399938
 H        -4.055670        -0.938594        -2.785264
 H        -3.939956         0.926893        -2.678581
 H        -2.864369        -0.191444        -3.742680
 H        -2.510349        -0.679678         0.669350
 H        -3.651731        -1.556213        -0.392480
 H        -1.674454        -2.092945        -1.711242
 H        -1.668501         1.343555         0.668274
 H        -0.180553         2.088843         0.148122
 H        -2.481584         2.030646        -1.281090
 H        -0.952601         1.395832        -2.271172
