19
Iteration:  2122
 C        -3.536010        -0.084149        -2.786960
 C        -2.437638        -0.064450        -1.589376
 C        -2.757647        -1.012575        -0.343918
 C        -1.552452        -1.207305        -1.237847
 O        -0.252998        -1.080712        -0.594370
 C        -0.066547         0.058737         0.162893
 O         0.753641         0.049065         1.028702
 C        -0.761107         1.359361        -0.250044
 C        -1.833023         1.310421        -1.264835
 H        -4.069024        -1.104680        -2.705881
 H        -4.213802         0.752391        -2.583899
 H        -3.002905         0.236470        -3.761118
 H        -2.553849        -0.758069         0.725845
 H        -3.554605        -1.734861        -0.378066
 H        -1.658365        -2.032277        -1.896843
 H        -1.063016         1.784979         0.714561
 H        -0.096386         1.977579        -0.645456
 H        -2.518263         2.247314        -1.334000
 H        -1.167999         1.400909        -2.207599
