19
Iteration:  4489
 C        -2.926863        -0.009571        -3.024782
 C        -2.409507         0.003493        -1.488260
 C        -3.176767        -0.850963        -0.447652
 C        -1.759354        -1.289440        -0.956398
 O        -0.631615        -1.231011        -0.060683
 C         0.030324         0.029911         0.070754
 O         1.180738         0.146806         0.142063
 C        -0.915373         1.153428         0.114118
 C        -1.859506         1.374581        -1.161034
 H        -2.883211        -0.953996        -3.504501
 H        -3.938817         0.365032        -3.021184
 H        -2.303381         0.664564        -3.638453
 H        -3.245552        -0.299295         0.547986
 H        -3.948845        -1.507486        -0.831468
 H        -1.501263        -2.128389        -1.692291
 H        -1.672244         1.029318         1.057273
 H        -0.257838         2.073922         0.437461
 H        -2.726889         1.994520        -0.834957
 H        -1.324356         1.753376        -1.956827
