19
Iteration:  4560charge 0 multiplicity 1
 C        -2.726351        -0.081689        -2.987032
 C        -2.423915        -0.025320        -1.506572
 C        -3.185083        -0.749851        -0.367204
 C        -1.780500        -1.223831        -0.942374
 O        -0.574832        -1.307636        -0.224577
 C        -0.047703         0.043534         0.036882
 O         1.144706         0.204401         0.093152
 C        -1.049752         1.157767         0.241976
 C        -1.882889         1.359139        -1.133200
 H        -3.623809        -0.761426        -3.098050
 H        -3.174870         0.882256        -3.329265
 H        -1.982115        -0.543201        -3.630165
 H        -3.018306        -0.192988         0.550666
 H        -3.984075        -1.435500        -0.576553
 H        -1.901580        -2.075317        -1.571293
 H        -1.517338         0.916334         1.150081
 H        -0.457816         1.997154         0.459385
 H        -2.575738         2.171000        -1.007396
 H        -0.953013         1.521358        -1.815401
