19
Iteration:  4728
 C        -3.411435        -0.100799        -2.628881
 C        -2.345804        -0.022030        -1.569138
 C        -2.761767        -0.846388        -0.189127
 C        -1.621712        -1.269352        -1.191404
 O        -0.309720        -0.984632        -0.803068
 C        -0.141165        -0.012765         0.103929
 O         0.659591        -0.145121         1.055859
 C        -0.770337         1.411301        -0.208101
 C        -1.649437         1.299681        -1.429042
 H        -4.098618        -0.967764        -2.566439
 H        -4.150868         0.714900        -2.533313
 H        -3.146858        -0.161579        -3.752384
 H        -2.558149        -0.468947         0.829381
 H        -3.775953        -1.209273        -0.345145
 H        -1.584843        -2.185250        -1.709595
 H        -1.500840         1.515217         0.551275
 H        -0.115608         2.216829        -0.074414
 H        -2.469646         2.087583        -1.511024
 H        -0.996415         1.598410        -2.442372
