19
Iteration:  2629charge 0 multiplicity 1
 C        -3.420333        -0.112290        -2.659928
 C        -2.382524        -0.102013        -1.561350
 C        -2.740202        -0.960712        -0.251547
 C        -1.603924        -1.256259        -1.172837
 O        -0.278354        -0.988527        -0.766388
 C        -0.079605         0.031661         0.050512
 O         0.618912         0.029210         1.043724
 C        -0.827943         1.362240        -0.202075
 C        -1.681626         1.310567        -1.365373
 H        -4.142718        -0.894408        -2.459733
 H        -4.076095         0.822465        -2.760239
 H        -2.971685        -0.282214        -3.640392
 H        -2.442653        -0.503030         0.779180
 H        -3.671885        -1.537249        -0.273817
 H        -1.598262        -2.150057        -1.807498
 H        -1.499035         1.600773         0.772342
 H        -0.052365         2.101117        -0.300059
 H        -2.406169         2.088996        -1.477058
 H        -0.977994         1.410101        -2.170636
