19
Iteration:  1320
 C        -3.013331         0.157051        -2.767715
 C        -2.466614        -0.083882        -1.382524
 C        -3.074856        -1.277577        -0.657872
 C        -1.643177        -1.249436        -1.094505
 O        -0.533796        -1.121646        -0.178549
 C         0.054577         0.077598        -0.034223
 O         0.850908         0.244514         0.896274
 C        -0.545029         1.326872        -0.872512
 C        -2.082666         1.220718        -0.756091
 H        -3.488772        -0.674323        -3.196700
 H        -3.831897         0.868017        -2.609064
 H        -2.235626         0.618459        -3.478319
 H        -3.308714        -1.184268         0.410657
 H        -3.692329        -1.964060        -1.192044
 H        -1.350324        -1.859588        -1.886345
 H         0.069375         2.262928        -0.401673
 H        -0.228075         1.146077        -2.023909
 H        -2.449042         1.347722         0.227450
 H        -2.534964         2.004654        -1.378074
