19
Iteration:  4365
 C        -3.381343        -0.035684        -2.650486
 C        -2.472762        -0.045237        -1.507613
 C        -2.910351        -0.780318        -0.297579
 C        -1.647801        -1.231786        -1.195060
 O        -0.277662        -1.049327        -0.724012
 C        -0.025173         0.112854         0.038258
 O         0.820576        -0.083862         0.929253
 C        -0.914192         1.266478        -0.094874
 C        -1.626488         1.242951        -1.386849
 H        -4.064600        -0.876559        -2.510448
 H        -3.961839         0.888303        -2.631908
 H        -2.885788        -0.085196        -3.630017
 H        -2.671099        -0.511170         0.719315
 H        -3.570016        -1.645582        -0.453012
 H        -1.601921        -2.161498        -1.731953
 H        -1.753697         1.223310         0.739730
 H        -0.397378         2.161397         0.201055
 H        -2.293259         2.112364        -1.516281
 H        -0.968212         1.259802        -2.194978
