19
Iteration:  1470charge 0 multiplicity 1
 C        -2.889355        -0.072409        -2.898987
 C        -2.489431        -0.090800        -1.482256
 C        -3.212807        -1.161368        -0.627619
 C        -1.711194        -1.226193        -1.098409
 O        -0.538732        -1.084935        -0.114448
 C        -0.012496         0.133177         0.032975
 O         1.163203         0.175533         0.509873
 C        -0.713810         1.391726        -0.297351
 C        -2.114660         1.223154        -0.857052
 H        -3.430703        -0.987169        -3.310033
 H        -3.590278         0.839347        -3.099624
 H        -2.057570         0.139344        -3.622734
 H        -3.250722        -0.874140         0.396923
 H        -3.841363        -1.809929        -1.105127
 H        -1.408133        -1.946541        -1.842575
 H        -0.703177         1.832789         0.695186
 H        -0.208779         2.067564        -0.905200
 H        -2.905846         1.488186         0.021519
 H        -2.091996         2.019274        -1.653037
