19
Iteration:  2920
 C        -3.102826        -0.094684        -2.935718
 C        -2.473481        -0.064944        -1.534366
 C        -3.060631        -0.818474        -0.403534
 C        -1.689303        -1.224711        -1.048370
 O        -0.456908        -1.180386        -0.470465
 C         0.017569         0.068455         0.191480
 O         1.134955         0.148325         0.597163
 C        -0.962134         1.258394         0.021295
 C        -1.856502         1.258596        -1.233540
 H        -3.449635        -1.095735        -3.127967
 H        -4.015862         0.424853        -2.842310
 H        -2.401473         0.163904        -3.766598
 H        -3.033975        -0.457336         0.635340
 H        -3.866808        -1.575931        -0.482394
 H        -1.775821        -2.035897        -1.681031
 H        -1.714260         1.322363         0.912030
 H        -0.312919         2.100349        -0.104369
 H        -2.724320         2.028034        -1.092351
 H        -1.239897         1.632525        -2.016824
