19
Iteration:  3816
 C        -3.102045         0.000592        -2.907718
 C        -2.536114         0.040384        -1.447103
 C        -3.047642        -1.054152        -0.500372
 C        -1.715892        -1.223744        -1.138867
 O        -0.521053        -1.163219        -0.286992
 C        -0.002375         0.100183         0.082425
 O         0.968968         0.004852         0.773095
 C        -0.514687         1.352084        -0.545873
 C        -2.064974         1.314852        -0.827327
 H        -2.752085        -0.972790        -3.295671
 H        -4.108116         0.282704        -3.197885
 H        -2.479057         0.777305        -3.402785
 H        -2.960485        -0.924872         0.608979
 H        -3.832606        -1.689830        -0.870505
 H        -1.494181        -1.900808        -2.004816
 H        -0.132226         2.175599         0.026268
 H        -0.041016         1.354983        -1.444288
 H        -2.653523         1.562437         0.021260
 H        -2.139579         2.088888        -1.635715
