19
Iteration:   115charge 0 multiplicity 1
 C        -2.889205        -0.023268        -2.981550
 C        -2.407505        -0.066120        -1.514113
 C        -3.200846        -1.077389        -0.575458
 C        -1.756129        -1.259963        -0.948203
 O        -0.718515        -1.006599        -0.018430
 C        -0.005080         0.125812         0.084017
 O         1.194299         0.076563         0.056130
 C        -0.870584         1.314142         0.156632
 C        -1.825297         1.304691        -1.053830
 H        -3.514681        -0.941795        -3.119197
 H        -3.559258         0.809934        -3.069201
 H        -2.188964        -0.255561        -3.787040
 H        -3.346047        -0.990880         0.578611
 H        -3.931541        -1.838086        -0.922840
 H        -1.511113        -2.164731        -1.568062
 H        -1.494793         1.333881         1.237834
 H        -0.076531         2.216012         0.112136
 H        -2.656135         2.002728        -0.987020
 H        -1.102763         1.487446        -1.942706
