19
Iteration:  4972
 C        -2.764304        -0.153812        -3.078171
 C        -2.458064        -0.030427        -1.565361
 C        -3.277947        -0.849638        -0.532831
 C        -1.848353        -1.204932        -0.859744
 O        -0.626040        -1.094876        -0.062499
 C         0.064820         0.113479         0.120265
 O         1.274027         0.075385         0.018856
 C        -0.871344         1.167488         0.257333
 C        -1.958249         1.325722        -1.041764
 H        -3.429869        -1.080459        -3.266191
 H        -3.441053         0.752200        -3.423074
 H        -1.928420        -0.108070        -3.818871
 H        -3.502829        -0.399256         0.443218
 H        -4.088000        -1.325095        -1.047410
 H        -1.645254        -2.072056        -1.447282
 H        -1.463988         0.852779         1.086648
 H        -0.486733         2.195859         0.357212
 H        -2.838266         1.816671        -0.706266
 H        -1.398647         1.850834        -1.930006
