19
Iteration:  4996charge 0 multiplicity 1
 C        -2.802077        -0.069815        -2.945097
 C        -2.457921        -0.005119        -1.495253
 C        -3.273267        -0.850831        -0.488513
 C        -1.726588        -1.197122        -0.898219
 O        -0.616825        -1.241469        -0.062394
 C         0.064417         0.069894        -0.091293
 O         1.238760         0.077657         0.199547
 C        -0.966730         1.219550         0.067770
 C        -1.926460         1.381067        -1.069247
 H        -2.915172        -1.147765        -3.178757
 H        -3.763641         0.469059        -3.311398
 H        -2.015608         0.435802        -3.584447
 H        -3.651668        -0.275951         0.356751
 H        -3.955498        -1.657472        -0.860234
 H        -1.657322        -2.003041        -1.578232
 H        -1.529210         0.918323         0.888318
 H        -0.493406         2.173869         0.122887
 H        -2.872351         2.008348        -0.885079
 H        -1.251334         1.711250        -1.975091
