19
Iteration:  2803
 C        -2.505651        -0.098415        -2.970574
 C        -2.450646        -0.007268        -1.465014
 C        -3.150758        -1.004518        -0.540790
 C        -1.722178        -1.215958        -0.887829
 O        -0.708526        -1.167132         0.092620
 C        -0.068933         0.090739        -0.020293
 O         1.109445         0.144797        -0.273068
 C        -1.061094         1.284135         0.270856
 C        -1.950773         1.328407        -0.955873
 H        -3.210136        -0.867408        -3.290785
 H        -2.915728         0.827171        -3.446309
 H        -1.551694        -0.343694        -3.454819
 H        -3.333248        -0.629594         0.448922
 H        -4.096813        -1.505384        -0.927079
 H        -1.503277        -2.047912        -1.471283
 H        -1.524916         0.987273         1.165338
 H        -0.437443         2.140513         0.433634
 H        -2.856123         2.064697        -0.774438
 H        -1.295696         1.792745        -1.821716
