19
Iteration:  2027charge 0 multiplicity 1
 C        -3.292334        -0.049395        -2.815732
 C        -2.472040        -0.092004        -1.584000
 C        -2.927227        -1.058455        -0.444287
 C        -1.590651        -1.271588        -1.152894
 O        -0.373388        -1.128872        -0.437129
 C        -0.007478         0.097307         0.125341
 O         0.858975         0.089246         0.945456
 C        -0.636808         1.415651        -0.437369
 C        -2.015427         1.309570        -1.070026
 H        -3.665366        -0.984601        -3.082353
 H        -4.047926         0.730349        -2.720728
 H        -2.638223         0.366348        -3.469967
 H        -3.100828        -0.516468         0.503002
 H        -3.703081        -1.770405        -0.586717
 H        -1.472168        -2.168718        -1.801769
 H        -0.552732         2.115124         0.409954
 H         0.203465         1.544109        -1.220488
 H        -2.804729         1.770735        -0.522181
 H        -1.906938         1.916669        -1.935006
