19
Iteration:  1920
 C        -2.723783         0.213606        -2.889699
 C        -2.556667        -0.100718        -1.476008
 C        -3.187436        -1.197685        -0.574615
 C        -1.686624        -1.269461        -0.972830
 O        -0.613702        -1.076712        -0.083744
 C         0.023489         0.099261        -0.081791
 O         0.953467         0.324436         0.666056
 C        -0.610519         1.198736        -0.851898
 C        -2.100516         1.073410        -0.609850
 H        -2.430407        -0.553382        -3.587863
 H        -3.875547         0.305764        -2.949694
 H        -2.141296         1.231750        -3.160802
 H        -3.603991        -0.881376         0.341427
 H        -3.774580        -1.914997        -1.174225
 H        -1.471619        -2.184129        -1.570799
 H        -0.211591         2.104089        -0.354912
 H        -0.257859         1.247351        -1.815271
 H        -2.266810         0.921786         0.461145
 H        -2.530684         2.144284        -0.863486
