19
Iteration:  2520charge 0 multiplicity 1
 C        -3.372203        -0.124240        -2.761643
 C        -2.561437        -0.049938        -1.486897
 C        -2.735309        -0.935022        -0.331462
 C        -1.618119        -1.230487        -1.217286
 O        -0.255210        -1.081817        -0.645809
 C        -0.090381         0.049313         0.139800
 O         0.658542         0.028176         1.071936
 C        -0.637679         1.355645        -0.336300
 C        -1.900798         1.325716        -1.303576
 H        -3.252288        -1.179248        -3.014506
 H        -4.438777         0.267354        -2.592420
 H        -3.004527         0.507607        -3.559844
 H        -2.263210        -0.700754         0.661320
 H        -3.585375        -1.614292        -0.152007
 H        -1.583851        -2.057063        -2.004468
 H        -0.726962         2.054201         0.673597
 H         0.285060         1.805458        -0.732077
 H        -2.575346         2.104753        -1.104916
 H        -1.547875         1.562117        -2.268503
