19
Iteration:   384charge 0 multiplicity 1
 C        -3.273639        -0.184922        -2.914242
 C        -2.584307         0.016629        -1.542566
 C        -2.923837        -0.906836        -0.368426
 C        -1.658077        -1.178726        -1.078200
 O        -0.334288        -1.149265        -0.507882
 C         0.014256         0.017902         0.156379
 O         0.989358        -0.043335         0.892470
 C        -0.693909         1.365421        -0.249920
 C        -2.014088         1.393940        -1.213110
 H        -3.418522        -1.326249        -2.989208
 H        -4.345240         0.197131        -2.969582
 H        -2.719216         0.391541        -3.657058
 H        -2.821842        -0.370492         0.633822
 H        -3.915733        -1.432267        -0.600162
 H        -1.681013        -1.906336        -1.836233
 H        -0.781894         1.903176         0.666720
 H         0.078636         1.790511        -0.740504
 H        -2.725017         2.206959        -0.845998
 H        -1.765426         1.923946        -2.136275
