19
Iteration:   255
 C        -3.377616        -0.059311        -2.768674
 C        -2.446580        -0.003075        -1.578913
 C        -2.803975        -0.827750        -0.390212
 C        -1.669849        -1.198661        -1.149297
 O        -0.354054        -1.123993        -0.488022
 C        -0.102509         0.008118         0.178872
 O         0.975349         0.066667         0.733400
 C        -0.962679         1.249080        -0.045696
 C        -1.711243         1.283669        -1.386421
 H        -4.035046        -0.983371        -2.807853
 H        -3.976036         0.793667        -2.679300
 H        -2.858629        -0.216875        -3.714952
 H        -2.494951        -0.583963         0.734665
 H        -3.705187        -1.574545        -0.385050
 H        -1.664210        -2.145065        -1.717049
 H        -1.720621         1.273057         0.734605
 H        -0.265258         2.057629         0.200969
 H        -2.502687         2.027094        -1.253189
 H        -1.041340         1.433122        -2.208695
