19
Iteration:  4454charge 0 multiplicity 1
 C        -3.054068        -0.058543        -2.945201
 C        -2.446133        -0.067242        -1.484554
 C        -3.092728        -0.891931        -0.472737
 C        -1.712263        -1.264125        -1.031780
 O        -0.580198        -1.084179        -0.243114
 C         0.019308         0.058357         0.063897
 O         1.151710        -0.040590         0.419543
 C        -0.852282         1.339665         0.033414
 C        -1.876886         1.345137        -1.137495
 H        -3.162843        -1.059230        -3.351868
 H        -4.074978         0.315756        -2.974985
 H        -2.410271         0.546731        -3.667746
 H        -3.302709        -0.468776         0.554501
 H        -3.939450        -1.556114        -0.796272
 H        -1.639562        -2.021725        -1.808522
 H        -1.366982         1.371648         1.122508
 H        -0.120255         2.153016        -0.046177
 H        -2.713052         2.085137        -0.959516
 H        -1.451435         1.674662        -2.050009
