19
Iteration:  1124charge 0 multiplicity 1
 C        -3.219087        -0.207649        -2.869821
 C        -2.440017        -0.069077        -1.559752
 C        -2.947436        -0.782807        -0.326048
 C        -1.688473        -1.204126        -1.019301
 O        -0.360044        -1.051889        -0.620191
 C        -0.056693         0.103788         0.152952
 O         1.048021         0.055352         0.644143
 C        -1.012714         1.245980         0.109361
 C        -1.788299         1.242889        -1.284902
 H        -3.316520        -1.218684        -3.164705
 H        -4.181990         0.375284        -2.932432
 H        -2.516704         0.352257        -3.649514
 H        -3.044397        -0.237004         0.551030
 H        -3.775388        -1.399517        -0.493372
 H        -1.720201        -2.131435        -1.691800
 H        -1.739835         1.001101         0.882290
 H        -0.555197         2.133392         0.257810
 H        -2.474287         2.206009        -1.305413
 H        -1.065261         1.500960        -2.120151
