19
Iteration:  1537charge 0 multiplicity 1
 C        -3.132668        -0.152575        -2.936246
 C        -2.446064        -0.042260        -1.556192
 C        -3.034523        -1.095106        -0.629485
 C        -1.675391        -1.252560        -1.155463
 O        -0.552257        -1.097343        -0.140744
 C         0.036055         0.107422         0.092460
 O         1.079247         0.156976         0.640865
 C        -0.651269         1.330576        -0.317687
 C        -2.066626         1.362346        -0.883506
 H        -3.092914        -1.162389        -3.362027
 H        -4.199298         0.289553        -2.820485
 H        -2.566214         0.556767        -3.672920
 H        -3.212592        -0.942933         0.469832
 H        -3.937021        -1.630854        -1.072169
 H        -1.378531        -2.116513        -1.764419
 H        -0.737604         1.941227         0.624057
 H         0.073467         1.908170        -0.886722
 H        -2.866527         1.609804         0.031545
 H        -2.088660         2.085822        -1.757438
