19
Iteration:  2459charge 0 multiplicity 1
 C        -3.234019        -0.116957        -2.908011
 C        -2.451423        -0.021036        -1.609384
 C        -2.918883        -0.985805        -0.367168
 C        -1.707048        -1.187928        -1.136061
 O        -0.488210        -1.109343        -0.365232
 C         0.006617         0.080989         0.147463
 O         1.071904         0.133378         0.725680
 C        -0.836069         1.303453        -0.074736
 C        -1.902353         1.252826        -1.265960
 H        -3.903921        -1.030249        -2.932735
 H        -3.868939         0.747389        -3.025426
 H        -2.658927        -0.325953        -3.842894
 H        -2.746702        -0.686276         0.663466
 H        -3.746090        -1.589840        -0.597989
 H        -1.583377        -2.047743        -1.792619
 H        -1.401936         1.383219         0.782278
 H        -0.022493         2.156199        -0.058169
 H        -2.737857         2.022355        -1.034698
 H        -1.369511         1.667926        -2.207574
