19
Iteration:  4580charge 0 multiplicity 1
 C        -2.865443        -0.032957        -2.921202
 C        -2.427423        -0.047782        -1.505874
 C        -3.135335        -0.821461        -0.403886
 C        -1.767048        -1.318314        -0.858895
 O        -0.547473        -1.143182        -0.260345
 C        -0.000761         0.054570         0.043353
 O         1.182031         0.065765         0.204329
 C        -1.062861         1.185392         0.103066
 C        -1.826182         1.370556        -1.166957
 H        -3.689287        -0.768700        -3.156536
 H        -3.167710         0.935696        -3.389324
 H        -2.097384        -0.405005        -3.520385
 H        -3.371702        -0.301249         0.526868
 H        -3.895163        -1.307191        -1.021533
 H        -1.827341        -2.111930        -1.528829
 H        -1.859623         1.055819         0.909277
 H        -0.597888         2.165615         0.464640
 H        -2.665894         1.942953        -0.807074
 H        -1.176181         1.933240        -1.912069
