19
Iteration:  1004charge 0 multiplicity 1
 C        -2.796119        -0.087128        -3.007127
 C        -2.530361        -0.053833        -1.553925
 C        -3.155374        -1.055530        -0.611150
 C        -1.695618        -1.202366        -0.938515
 O        -0.593844        -1.145359         0.067475
 C         0.052411         0.098806        -0.015627
 O         1.229368         0.058128         0.237541
 C        -0.809204         1.353337        -0.147561
 C        -2.201121         1.387595        -0.886622
 H        -2.955672        -1.008971        -3.465883
 H        -3.630839         0.587889        -3.229652
 H        -1.907143         0.317781        -3.626047
 H        -3.312705        -0.745866         0.427835
 H        -3.827190        -1.814589        -0.920002
 H        -1.452019        -2.066573        -1.672823
 H        -1.209146         1.374466         0.872082
 H        -0.167042         2.343491        -0.364980
 H        -3.094590         1.597740        -0.228176
 H        -2.207377         2.103398        -1.594309
