19
Iteration:   436charge 0 multiplicity 1
 C        -3.170081         0.048781        -2.809526
 C        -2.411827        -0.046594        -1.527895
 C        -3.029283        -1.084385        -0.482539
 C        -1.665755        -1.307761        -1.110230
 O        -0.505616        -1.200402        -0.196942
 C         0.004086         0.038439         0.069850
 O         1.059044         0.106332         0.675482
 C        -0.783883         1.369418        -0.300919
 C        -1.948531         1.409738        -1.203919
 H        -3.954291        -0.755672        -2.990879
 H        -3.810315         1.011804        -2.722490
 H        -2.463575        -0.112644        -3.634317
 H        -3.060414        -0.813558         0.598148
 H        -3.786516        -1.800408        -0.807523
 H        -1.680694        -2.320596        -1.677716
 H        -1.051180         1.717327         0.736493
 H         0.160554         2.119982        -0.664623
 H        -2.764071         2.054710        -0.732464
 H        -1.600494         1.854205        -2.222371
