19
Iteration:  4236
 C        -3.298906        -0.108149        -2.830141
 C        -2.417040        -0.064841        -1.511143
 C        -3.045637        -0.945714        -0.455533
 C        -1.683427        -1.283390        -1.113887
 O        -0.416966        -1.096470        -0.491748
 C         0.076858         0.087626         0.062286
 O         0.995189        -0.142171         0.866238
 C        -0.736947         1.522246        -0.228622
 C        -1.887336         1.400565        -1.153623
 H        -4.010769        -0.893510        -2.947195
 H        -3.917791         0.804982        -2.836301
 H        -2.650968        -0.104026        -3.773216
 H        -3.071693        -0.626017         0.609179
 H        -3.765724        -1.716081        -0.714946
 H        -1.529596        -2.183925        -1.726764
 H        -1.025333         1.789605         0.809906
 H        -0.107292         2.282740        -0.562591
 H        -2.863775         1.885355        -0.741708
 H        -1.614635         1.857538        -2.185357
