19
Iteration:  3454
 C        -3.264624         0.329125        -2.624006
 C        -2.422931        -0.024206        -1.419741
 C        -3.036567        -1.232089        -0.702092
 C        -1.564758        -1.409519        -1.244052
 O        -0.519785        -1.167804        -0.250269
 C         0.065845         0.100050        -0.006302
 O         0.568691         0.338458         1.031662
 C        -0.370323         1.131811        -0.954641
 C        -1.837870         1.215988        -0.751303
 H        -3.814992        -0.476704        -3.092052
 H        -3.991642         1.019532        -2.199091
 H        -2.616629         0.851290        -3.430678
 H        -3.215079        -1.194539         0.362165
 H        -3.725231        -1.879266        -1.332057
 H        -1.342097        -2.180721        -1.985241
 H         0.199303         2.114429        -0.628147
 H        -0.123444         0.984475        -1.951359
 H        -2.015849         1.135178         0.343149
 H        -2.197279         2.150578        -0.996469
