19
Iteration:   779
 C        -3.081916         0.320626        -2.707651
 C        -2.530650        -0.062045        -1.384204
 C        -2.990438        -1.276137        -0.558838
 C        -1.604936        -1.309379        -1.252134
 O        -0.542260        -1.204583        -0.210099
 C        -0.012667         0.097091        -0.027778
 O         0.675335         0.364010         0.956323
 C        -0.426421         1.145269        -0.972363
 C        -1.950071         1.206790        -0.712286
 H        -3.316709        -0.686852        -3.265895
 H        -4.037749         0.890781        -2.813097
 H        -2.277185         0.889356        -3.131696
 H        -2.826384        -1.136105         0.431414
 H        -3.839395        -1.771120        -0.913607
 H        -1.207776        -2.020739        -2.078791
 H         0.023816         2.083716        -0.713360
 H        -0.152538         0.985748        -2.105935
 H        -2.049835         1.285145         0.336335
 H        -2.518681         2.050794        -1.132200
