19
Iteration:  2614charge 0 multiplicity 1
 C        -3.431807        -0.152881        -2.586919
 C        -2.430778        -0.012740        -1.508668
 C        -2.688546        -0.924905        -0.259090
 C        -1.561119        -1.217453        -1.234168
 O        -0.203399        -1.043722        -0.761347
 C        -0.100212         0.141006         0.142845
 O         0.554452        -0.116397         1.094958
 C        -0.789974         1.431329        -0.219704
 C        -1.755703         1.275156        -1.531550
 H        -4.114176        -0.991497        -2.443996
 H        -3.921983         0.790006        -2.585286
 H        -3.078063        -0.181220        -3.641165
 H        -2.403503        -0.690244         0.797358
 H        -3.502741        -1.676686        -0.233486
 H        -1.635183        -2.127599        -1.912326
 H        -1.251199         1.720331         0.628058
 H        -0.025838         2.198877        -0.405540
 H        -2.572131         2.126914        -1.445498
 H        -1.238685         1.501585        -2.576323
