19
Iteration:   760
 C        -3.146416         0.211231        -2.727503
 C        -2.456330        -0.015979        -1.403383
 C        -2.957757        -1.239603        -0.593316
 C        -1.530377        -1.219556        -1.152051
 O        -0.534139        -1.102782        -0.231104
 C         0.003851         0.086808         0.006885
 O         0.690007         0.218193         1.018737
 C        -0.475186         1.163036        -0.987217
 C        -1.984064         1.204424        -0.795021
 H        -3.805942        -0.486980        -3.140069
 H        -3.901691         0.910378        -2.390019
 H        -2.572683         0.776686        -3.427180
 H        -3.003120        -1.106415         0.521478
 H        -3.599764        -1.944305        -1.158877
 H        -1.395374        -1.834940        -2.058047
 H         0.103226         2.119733        -0.933351
 H        -0.306050         0.712891        -2.111245
 H        -2.305581         1.261336         0.315944
 H        -2.382835         2.048997        -1.229596
