19
Iteration:  1416charge 0 multiplicity 1
 C        -2.799451         0.032020        -2.920189
 C        -2.555857        -0.066476        -1.431982
 C        -3.092772        -1.150022        -0.578226
 C        -1.714636        -1.254789        -1.084448
 O        -0.632531        -1.065177        -0.127781
 C         0.021058         0.123273         0.009930
 O         1.107300         0.166408         0.567733
 C        -0.683461         1.329678        -0.508671
 C        -2.190705         1.195877        -0.770392
 H        -2.447656        -0.878212        -3.429316
 H        -3.861303         0.319594        -3.207002
 H        -2.067663         0.755221        -3.333444
 H        -3.171559        -1.057064         0.440570
 H        -3.786952        -1.783014        -0.940022
 H        -1.424594        -2.032971        -1.749381
 H        -0.458167         2.187169         0.179660
 H        -0.179276         1.674423        -1.422137
 H        -2.624058         1.209458         0.283974
 H        -2.615476         2.059073        -1.295693
