19
Iteration:  1285charge 0 multiplicity 1
 C        -3.057733        -0.032999        -2.915540
 C        -2.545734        -0.003092        -1.526329
 C        -2.932190        -1.091232        -0.404337
 C        -1.692967        -1.149688        -1.147822
 O        -0.456597        -1.128990        -0.395528
 C        -0.018769         0.024641         0.111893
 O         0.861913         0.165128         0.902927
 C        -0.522470         1.288946        -0.617811
 C        -2.128684         1.252950        -0.839072
 H        -2.963002        -1.025305        -3.336983
 H        -4.070723         0.407916        -2.927989
 H        -2.434669         0.624148        -3.574684
 H        -2.863102        -0.741592         0.543680
 H        -3.571930        -1.906853        -0.518308
 H        -1.562993        -1.930793        -1.950069
 H        -0.269202         2.303598        -0.041329
 H        -0.110254         1.418039        -1.771482
 H        -2.587978         1.323657         0.078404
 H        -2.497886         2.061219        -1.388787
