19
Iteration:  1580charge 0 multiplicity 1
 C        -2.985159         0.000857        -2.958207
 C        -2.531410        -0.048205        -1.480313
 C        -3.016498        -1.091713        -0.457839
 C        -1.616842        -1.237209        -1.042279
 O        -0.440810        -1.024797        -0.369880
 C        -0.035741         0.110398         0.094205
 O         0.960541         0.055422         0.812276
 C        -0.673031         1.299075        -0.580332
 C        -2.155982         1.285900        -0.855435
 H        -2.726431        -0.922908        -3.434557
 H        -4.083425         0.218517        -2.991862
 H        -2.387664         0.756964        -3.507952
 H        -3.079040        -0.865834         0.615299
 H        -3.793937        -1.920036        -0.542299
 H        -1.487113        -2.093759        -1.728807
 H        -0.386652         2.144748         0.009503
 H        -0.162716         1.301546        -1.470208
 H        -2.869892         1.487710         0.015691
 H        -2.387368         2.162163        -1.521410
