19
Iteration:   217
 C        -3.086977        -0.160781        -2.907570
 C        -2.563686        -0.011336        -1.531484
 C        -3.118939        -0.873815        -0.404017
 C        -1.748257        -1.185393        -1.006223
 O        -0.421259        -1.061990        -0.490304
 C         0.006821         0.043342         0.090128
 O         1.096006         0.029242         0.630006
 C        -0.768418         1.299731        -0.083994
 C        -1.868179         1.269938        -1.123098
 H        -3.193182        -1.214468        -3.018712
 H        -4.108673         0.338538        -3.070298
 H        -2.471448         0.323098        -3.683577
 H        -3.199161        -0.468421         0.530201
 H        -3.847280        -1.578508        -0.649365
 H        -1.743830        -2.107625        -1.535062
 H        -1.414578         1.340233         1.015841
 H        -0.132730         2.229400        -0.154139
 H        -2.639424         2.011092        -0.826582
 H        -1.490071         1.655961        -2.101106
