19
Iteration:  2303charge 0 multiplicity 1
 C        -2.886981        -0.053160        -2.969533
 C        -2.453697        -0.043762        -1.526170
 C        -3.148440        -1.069892        -0.663115
 C        -1.698427        -1.241780        -0.970589
 O        -0.650331        -1.066632         0.105102
 C         0.032840         0.079233         0.030820
 O         1.270815         0.092074         0.108384
 C        -0.959588         1.347971         0.046890
 C        -1.996882         1.261833        -0.984387
 H        -3.580457        -0.799380        -3.274682
 H        -3.481256         0.926506        -3.200474
 H        -1.973811        -0.003522        -3.553849
 H        -3.367474        -0.844859         0.435463
 H        -3.839940        -1.650026        -1.307751
 H        -1.339896        -2.062789        -1.527070
 H        -1.335250         1.291470         1.032322
 H        -0.477867         2.311353         0.035888
 H        -2.942186         1.818016        -0.690913
 H        -1.475345         1.825285        -1.780893
