19
Iteration:  4873
 C        -3.020687        -0.155691        -2.948266
 C        -2.398470        -0.083431        -1.656578
 C        -3.131909        -0.743494        -0.515613
 C        -1.864205        -1.270131        -0.971093
 O        -0.605494        -1.129711        -0.344781
 C         0.031934         0.083152         0.192896
 O         1.209216         0.116039         0.347424
 C        -0.882126         1.252663         0.226196
 C        -1.779489         1.292651        -1.135124
 H        -3.182608        -1.248034        -3.243071
 H        -4.114950         0.169707        -2.894591
 H        -2.542849         0.369929        -3.785882
 H        -3.227643        -0.360975         0.481296
 H        -3.946748        -1.428467        -0.745225
 H        -1.870827        -2.321700        -1.406669
 H        -1.360340         1.190315         1.147199
 H        -0.263864         2.152063         0.338378
 H        -2.616184         2.069658        -0.993284
 H        -1.210529         1.705143        -2.106135
