19
Iteration:  2708charge 0 multiplicity 1
 C        -2.997617        -0.166081        -2.890016
 C        -2.430054        -0.031739        -1.524846
 C        -3.090517        -0.890765        -0.492121
 C        -1.772799        -1.228543        -0.998744
 O        -0.508698        -1.208998        -0.296790
 C         0.004172         0.052833         0.067501
 O         1.141518         0.226091         0.436262
 C        -0.946684         1.241880         0.112299
 C        -1.857443         1.300324        -1.191874
 H        -3.031238        -1.177794        -3.374634
 H        -4.036228         0.270622        -2.953795
 H        -2.569377         0.480479        -3.664390
 H        -3.066953        -0.489069         0.452586
 H        -4.078725        -1.269554        -0.688445
 H        -1.764620        -1.995167        -1.745311
 H        -1.618188         1.371565         1.069430
 H        -0.260745         2.113209        -0.078745
 H        -2.524848         2.089086        -1.056385
 H        -1.299468         1.581402        -2.026878
