19
Iteration:  3800charge 0 multiplicity 1
 C        -3.009526         0.022645        -2.971046
 C        -2.607290        -0.019662        -1.484433
 C        -3.021507        -1.085277        -0.415187
 C        -1.659647        -1.124474        -1.089333
 O        -0.595331        -1.107852        -0.271671
 C         0.065751         0.004515         0.021715
 O         1.035017        -0.038808         0.733292
 C        -0.609398         1.327533        -0.446904
 C        -2.061661         1.350758        -0.942107
 H        -3.058562        -0.907053        -3.546076
 H        -4.152822         0.268680        -2.831722
 H        -2.455433         0.725553        -3.612436
 H        -3.125899        -0.545159         0.503703
 H        -3.753862        -1.911615        -0.590158
 H        -1.487001        -1.996536        -1.717209
 H        -0.576881         2.024138         0.435611
 H         0.113037         1.876825        -1.215817
 H        -2.679780         1.612628        -0.001154
 H        -2.243746         2.065702        -1.725310
