19
Iteration:    39
 C        -2.904600        -0.217159        -2.962706
 C        -2.482303        -0.049201        -1.537425
 C        -3.227468        -0.707941        -0.382503
 C        -1.886870        -1.255548        -0.948537
 O        -0.528408        -1.046365        -0.423310
 C         0.056786         0.107100         0.152061
 O         1.241404         0.172497         0.333191
 C        -0.997077         1.124279         0.140043
 C        -1.757532         1.176307        -1.149966
 H        -3.115727        -1.270510        -3.150403
 H        -3.867721         0.226449        -3.272813
 H        -2.201675         0.295340        -3.618534
 H        -3.098885        -0.151985         0.603905
 H        -4.175584        -1.236974        -0.549959
 H        -1.930373        -2.175465        -1.555587
 H        -1.698923         0.978418         1.088669
 H        -0.542400         2.141449         0.416946
 H        -2.430641         2.014805        -1.128637
 H        -1.172719         1.614902        -1.981784
