19
Iteration:   708charge 0 multiplicity 1
 C        -3.220484        -0.006966        -2.815272
 C        -2.450525        -0.018597        -1.492187
 C        -2.970219        -1.070578        -0.520975
 C        -1.605764        -1.254235        -1.207126
 O        -0.539647        -1.098093        -0.296444
 C         0.005339         0.072937         0.059770
 O         0.890656         0.082281         0.899431
 C        -0.530298         1.297338        -0.586510
 C        -1.998388         1.329405        -0.921291
 H        -3.453023        -1.052835        -2.952758
 H        -4.228208         0.497698        -2.899439
 H        -2.606121         0.509886        -3.660703
 H        -2.939778        -0.828730         0.627582
 H        -3.836493        -1.754469        -0.855627
 H        -1.470205        -2.092587        -1.861191
 H        -0.234647         2.128709         0.086413
 H        -0.021064         1.469788        -1.428993
 H        -2.666713         1.607830        -0.043767
 H        -2.141188         2.161047        -1.693608
