19
Iteration:  2130
 C        -3.533741        -0.043387        -2.733562
 C        -2.469424        -0.028480        -1.512241
 C        -2.715792        -1.058392        -0.349946
 C        -1.553553        -1.259180        -1.249422
 O        -0.286228        -1.092748        -0.594910
 C        -0.086035         0.070030         0.146837
 O         0.769422         0.081082         1.020881
 C        -0.800030         1.358656        -0.172943
 C        -1.770877         1.292768        -1.401047
 H        -4.100895        -0.936390        -2.928312
 H        -4.204127         0.782532        -2.618212
 H        -2.991904         0.017656        -3.701183
 H        -2.617148        -0.576479         0.621434
 H        -3.621494        -1.728243        -0.448005
 H        -1.437690        -2.045862        -1.940185
 H        -1.142575         1.623475         0.845686
 H         0.085297         2.034440        -0.522629
 H        -2.536003         2.087781        -1.300734
 H        -1.233139         1.527649        -2.397603
