19
Iteration:  3195charge 0 multiplicity 1
 C        -2.904994        -0.165352        -3.092465
 C        -2.502977        -0.013104        -1.540620
 C        -3.089417        -0.783222        -0.390261
 C        -1.787580        -1.259545        -0.929439
 O        -0.547908        -1.137840        -0.281452
 C        -0.075366         0.071212         0.074454
 O         1.142819         0.259928         0.214106
 C        -1.034938         1.145396         0.242159
 C        -1.719285         1.227895        -1.065978
 H        -3.461417        -1.141548        -3.277096
 H        -3.723818         0.596129        -3.427010
 H        -2.024173        -0.131792        -3.884292
 H        -2.960451        -0.308783         0.566574
 H        -3.853669        -1.422783        -0.634419
 H        -1.750226        -2.121362        -1.515633
 H        -1.794297         0.986439         1.067071
 H        -0.516668         1.973222         0.691675
 H        -2.353269         2.094437        -1.028123
 H        -0.929278         1.435167        -1.912126
