19
Iteration:  3296
 C        -2.691923        -0.038312        -2.922637
 C        -2.398783         0.002468        -1.411348
 C        -3.148243        -1.105394        -0.657056
 C        -1.659809        -1.330554        -0.963067
 O        -0.837471        -1.093558         0.084585
 C         0.000554         0.077368        -0.063137
 O         1.187939         0.050221         0.022975
 C        -0.842605         1.328035         0.022767
 C        -2.070855         1.455905        -0.902602
 H        -3.259185        -0.976696        -3.367927
 H        -3.556450         0.714574        -3.086060
 H        -1.832950         0.010339        -3.566533
 H        -3.342001        -0.936643         0.414824
 H        -3.877712        -1.724198        -1.267964
 H        -1.197457        -2.042621        -1.704627
 H        -1.283690         1.242012         1.008845
 H        -0.142348         2.263497        -0.011859
 H        -2.778628         1.929265        -0.304702
 H        -1.825983         2.124565        -1.920913
