19
Iteration:   276
 C        -3.469643         0.010617        -2.676560
 C        -2.388182        -0.076196        -1.598826
 C        -2.807839        -0.896733        -0.366853
 C        -1.618185        -1.310841        -1.214631
 O        -0.346357        -1.118454        -0.601136
 C        -0.089026         0.052176         0.160106
 O         0.913228         0.113171         0.845876
 C        -1.005069         1.301337        -0.055683
 C        -1.600250         1.234391        -1.394729
 H        -4.282743        -0.773863        -2.512029
 H        -4.001442         0.911381        -2.547300
 H        -3.177417        -0.235046        -3.685972
 H        -2.763361        -0.309747         0.641574
 H        -3.879837        -1.319256        -0.508549
 H        -1.489996        -2.259992        -1.778545
 H        -1.686127         1.438830         0.951467
 H        -0.317767         2.114472         0.084401
 H        -2.210200         2.114874        -1.630664
 H        -0.738186         1.209313        -2.018646
