19
Iteration:  1371
 C        -2.983080         0.226219        -2.813669
 C        -2.531464        -0.065932        -1.436083
 C        -3.041906        -1.287902        -0.761968
 C        -1.572123        -1.218934        -1.097194
 O        -0.744596        -1.048664         0.030788
 C         0.045674         0.135515         0.021048
 O         1.058434         0.264764         0.742731
 C        -0.588705         1.185211        -0.902133
 C        -2.135134         1.130668        -0.644981
 H        -3.071484        -0.727141        -3.436584
 H        -3.986659         0.757828        -2.793264
 H        -2.290371         0.747709        -3.448424
 H        -3.419884        -1.197287         0.203471
 H        -3.539353        -2.026459        -1.297386
 H        -1.109370        -1.928665        -1.822193
 H        -0.199269         2.135657        -0.654863
 H        -0.212382         1.013855        -1.886390
 H        -2.342867         0.960127         0.477825
 H        -2.402043         2.142505        -0.927248
