19
Iteration:  2041charge 0 multiplicity 1
 C        -3.214537        -0.061932        -2.884756
 C        -2.471711        -0.043952        -1.474629
 C        -2.897185        -1.005164        -0.349698
 C        -1.645405        -1.251243        -1.117993
 O        -0.327523        -1.114047        -0.524170
 C        -0.028837         0.051024         0.119295
 O         0.839987         0.059080         0.990934
 C        -0.650125         1.332393        -0.423124
 C        -2.048508         1.368708        -1.177659
 H        -3.485788        -1.068715        -3.160860
 H        -4.248861         0.330967        -2.700998
 H        -2.699817         0.376959        -3.776536
 H        -2.556026        -0.839929         0.678097
 H        -3.727244        -1.676618        -0.530579
 H        -1.693821        -2.103698        -1.893530
 H        -0.584933         2.119416         0.340796
 H        -0.005210         1.808030        -1.046298
 H        -2.748025         1.722226        -0.428604
 H        -2.194536         2.116284        -2.086916
