19
Iteration:  2181
 C        -3.441980        -0.131868        -2.796777
 C        -2.463561        -0.052226        -1.584235
 C        -2.864652        -0.849577        -0.397993
 C        -1.635209        -1.275224        -1.178136
 O        -0.291705        -1.018022        -0.618922
 C        -0.100485         0.057267         0.227241
 O         0.949168         0.101531         0.797973
 C        -0.980438         1.278793         0.011806
 C        -1.645520         1.261107        -1.326156
 H        -3.881597        -1.101339        -3.003755
 H        -4.328775         0.596133        -2.622630
 H        -2.937800         0.125703        -3.715438
 H        -2.624742        -0.538187         0.586562
 H        -3.554749        -1.715930        -0.418400
 H        -1.638154        -2.344498        -1.502942
 H        -1.738188         1.239733         0.783992
 H        -0.388265         2.206249         0.263521
 H        -2.151926         2.192930        -1.487831
 H        -0.909976         1.136252        -2.071107
