19
Iteration:  1277charge 0 multiplicity 1
 C        -3.077043        -0.065810        -2.932164
 C        -2.529952        -0.039722        -1.536844
 C        -2.963754        -1.077324        -0.354415
 C        -1.650920        -1.105808        -1.150700
 O        -0.436268        -1.117936        -0.416900
 C         0.014535         0.102196         0.038677
 O         0.866678         0.077862         0.941537
 C        -0.570111         1.286680        -0.581733
 C        -2.132757         1.294735        -0.864270
 H        -2.996348        -0.999167        -3.415766
 H        -4.137129         0.200662        -2.999710
 H        -2.543742         0.555095        -3.740451
 H        -2.895284        -0.716264         0.676196
 H        -3.632624        -1.913367        -0.416701
 H        -1.599599        -1.867873        -1.855859
 H        -0.262232         2.230651         0.088001
 H         0.020266         1.490424        -1.519237
 H        -2.734018         1.316504         0.039336
 H        -2.412867         2.190936        -1.511357
