19
Iteration:  4749charge 0 multiplicity 1
 C        -3.455322        -0.098015        -2.577231
 C        -2.496301         0.074386        -1.525863
 C        -2.626643        -0.856835        -0.273379
 C        -1.600459        -1.231236        -1.298996
 O        -0.263715        -1.145760        -0.740308
 C        -0.179161         0.069046         0.124888
 O         0.633361        -0.056220         1.045747
 C        -0.876546         1.297262        -0.162911
 C        -1.624023         1.324606        -1.446167
 H        -4.250813        -0.857388        -2.558031
 H        -3.974392         0.864886        -2.752630
 H        -2.857195        -0.345625        -3.564145
 H        -2.242459        -0.405637         0.650482
 H        -3.524909        -1.464412        -0.154961
 H        -1.775149        -2.092552        -1.882279
 H        -1.177159         1.763646         0.753098
 H         0.032190         1.811936        -0.311634
 H        -2.162062         2.274430        -1.560988
 H        -0.911304         1.312560        -2.437916
