19
Iteration:  3578
 C        -3.121725         0.066002        -2.909163
 C        -2.557721        -0.019599        -1.522028
 C        -2.970014        -0.979942        -0.452850
 C        -1.658720        -1.219515        -1.098122
 O        -0.531262        -1.215339        -0.256003
 C         0.026766         0.028253         0.077266
 O         1.075647         0.002006         0.711141
 C        -0.677349         1.341519        -0.266080
 C        -2.083096         1.318539        -1.123947
 H        -3.642155        -0.936148        -3.143769
 H        -3.928259         0.850039        -3.022237
 H        -2.315427         0.338473        -3.711260
 H        -3.035579        -0.779585         0.593554
 H        -3.680068        -1.751818        -0.724719
 H        -1.550928        -2.057715        -1.851902
 H        -0.692790         1.915714         0.617791
 H         0.119604         1.922673        -0.888164
 H        -2.787974         2.027595        -0.530823
 H        -1.917925         2.036611        -1.921880
