19
Iteration:  4737
 C        -3.467674        -0.082921        -2.647846
 C        -2.359635        -0.011036        -1.497284
 C        -2.667773        -0.823390        -0.247817
 C        -1.616875        -1.272860        -1.172869
 O        -0.275503        -1.046172        -0.785523
 C        -0.205658        -0.076360         0.147846
 O         0.601963        -0.078157         0.986470
 C        -0.804008         1.385954        -0.164764
 C        -1.635939         1.374777        -1.463232
 H        -4.069572        -0.931940        -2.349371
 H        -4.121168         0.809586        -2.723104
 H        -2.973313        -0.258487        -3.684431
 H        -2.298657        -0.712998         0.765493
 H        -3.593241        -1.423219        -0.244314
 H        -1.663544        -2.153215        -1.824558
 H        -1.483367         1.708495         0.667890
 H         0.046536         2.022145        -0.236439
 H        -2.341822         2.163480        -1.540942
 H        -0.861870         1.418874        -2.345384
