19
Iteration:  4204
 C        -3.206041        -0.105333        -2.903117
 C        -2.502430         0.038503        -1.515426
 C        -2.987050        -0.890809        -0.384092
 C        -1.682809        -1.203413        -1.141562
 O        -0.499715        -1.163947        -0.385485
 C         0.010351        -0.053324         0.156664
 O         1.088110         0.126490         0.637791
 C        -0.869874         1.213320        -0.141102
 C        -1.841334         1.345274        -1.145332
 H        -3.892336        -0.924637        -3.000364
 H        -3.644870         0.884224        -3.180056
 H        -2.378227        -0.080533        -3.721308
 H        -2.829073        -0.515639         0.650380
 H        -3.773888        -1.624908        -0.516681
 H        -1.652226        -1.951422        -1.943088
 H        -1.396678         1.398190         0.800147
 H        -0.117664         1.944619        -0.219535
 H        -2.620456         2.056654        -0.805574
 H        -1.379855         1.864005        -2.060643
