19
Iteration:   419
 C        -3.201343         0.035884        -2.835206
 C        -2.494264        -0.112028        -1.514504
 C        -2.989710        -1.019406        -0.450859
 C        -1.667164        -1.341800        -1.069963
 O        -0.510556        -1.142488        -0.322282
 C         0.017034         0.113022         0.021865
 O         0.974163         0.081604         0.754369
 C        -0.633857         1.426221        -0.267047
 C        -1.920127         1.259389        -1.176413
 H        -3.804309        -0.844586        -3.193551
 H        -3.859369         0.862993        -2.688838
 H        -2.544888         0.055315        -3.726857
 H        -3.025295        -0.742164         0.610956
 H        -4.012146        -1.459059        -0.740899
 H        -1.489369        -2.029239        -1.829129
 H        -0.892134         1.861268         0.769026
 H         0.026202         2.066558        -0.658941
 H        -2.782578         1.758010        -0.719953
 H        -1.581755         1.689970        -2.072660
