19
Iteration:  3016charge 0 multiplicity 1
 C        -3.501774        -0.162004        -2.548826
 C        -2.414228        -0.051316        -1.525688
 C        -2.736035        -0.875220        -0.285121
 C        -1.560137        -1.239023        -1.222147
 O        -0.222123        -0.977923        -0.855345
 C         0.062919         0.084023         0.091827
 O         0.448829        -0.090451         1.201936
 C        -0.741848         1.366763        -0.279354
 C        -1.672257         1.298881        -1.480479
 H        -3.922011        -1.190469        -2.650082
 H        -4.335912         0.434601        -2.192175
 H        -3.066007         0.078602        -3.600561
 H        -2.508407        -0.484450         0.747623
 H        -3.680428        -1.388193        -0.234219
 H        -1.505210        -2.026175        -1.873563
 H        -1.398237         1.484258         0.614808
 H        -0.072705         2.159290        -0.408002
 H        -2.332779         2.078264        -1.260203
 H        -1.269032         1.467458        -2.541857
