19
Iteration:  3390charge 0 multiplicity 1
 C        -2.966440         0.075825        -2.910708
 C        -2.534692        -0.005345        -1.418029
 C        -3.078064        -1.135688        -0.553754
 C        -1.687568        -1.207156        -1.120197
 O        -0.560909        -1.199721        -0.276909
 C         0.005476         0.101369         0.106841
 O         1.021100         0.055973         0.762946
 C        -0.597088         1.323615        -0.583423
 C        -2.070216         1.370460        -0.788623
 H        -3.031684        -0.910632        -3.385987
 H        -3.994664         0.392392        -2.979072
 H        -2.376567         0.716182        -3.663262
 H        -3.180901        -1.049572         0.495967
 H        -3.776702        -1.895622        -0.942182
 H        -1.469896        -1.783481        -1.988803
 H        -0.122700         2.324445        -0.269825
 H        -0.309726         1.068981        -1.620639
 H        -2.748572         1.497181         0.202382
 H        -2.433357         2.246528        -1.244549
