19
Iteration:  4660
 C        -3.276854        -0.053737        -2.760616
 C        -2.395740        -0.041084        -1.510766
 C        -2.879079        -0.810340        -0.378938
 C        -1.682803        -1.250821        -1.200785
 O        -0.444743        -1.154436        -0.453450
 C        -0.012479         0.061232         0.050477
 O         0.899376        -0.016059         0.807198
 C        -0.803664         1.318628        -0.138698
 C        -1.819873         1.298168        -1.282430
 H        -3.248340        -1.053626        -3.218548
 H        -4.337044         0.055161        -2.475836
 H        -2.944925         0.657598        -3.575350
 H        -2.682282        -0.396171         0.600444
 H        -3.918475        -1.092458        -0.565484
 H        -1.763126        -2.242742        -1.757143
 H        -1.380763         1.305907         0.789238
 H        -0.173355         2.155381        -0.149953
 H        -2.494373         2.140977        -1.274893
 H        -1.106197         1.513254        -2.218354
