19
Iteration:  4522
 C        -2.803965        -0.107043        -2.978079
 C        -2.384800        -0.046248        -1.556857
 C        -3.280452        -0.772251        -0.498830
 C        -1.780880        -1.243351        -0.881602
 O        -0.605702        -1.157089        -0.196077
 C         0.018869         0.095470         0.088403
 O         1.230614         0.118920        -0.006534
 C        -1.055267         1.167787         0.350553
 C        -1.780725         1.298954        -1.068203
 H        -3.247336        -1.067997        -3.159520
 H        -3.614442         0.600826        -3.126314
 H        -1.990226         0.094242        -3.698352
 H        -3.646063        -0.220380         0.399338
 H        -4.124757        -1.413107        -0.780521
 H        -1.716673        -2.175423        -1.527705
 H        -1.806859         0.823179         1.190447
 H        -0.570792         2.197864         0.571610
 H        -2.595686         2.048369        -1.156622
 H        -1.094724         1.589180        -1.795824
