19
Iteration:  4927
 C        -2.728197        -0.010948        -2.929174
 C        -2.349689        -0.026168        -1.435666
 C        -3.173492        -0.875168        -0.371753
 C        -1.782157        -1.280402        -0.905438
 O        -0.628323        -1.266415        -0.042696
 C        -0.068484         0.011006        -0.002321
 O         1.103803         0.192698        -0.000197
 C        -1.086714         1.187929         0.109895
 C        -1.782255         1.422567        -1.172216
 H        -3.493721        -0.822173        -3.251411
 H        -3.019583         0.979578        -3.425249
 H        -1.839733        -0.300422        -3.557325
 H        -3.206899        -0.481864         0.640549
 H        -4.054277        -1.357962        -0.757906
 H        -1.578945        -2.032360        -1.712917
 H        -1.830064         0.838816         0.814074
 H        -0.459252         1.986764         0.556840
 H        -2.569925         2.085148        -0.913099
 H        -1.129882         1.722490        -2.081173
