19
Iteration:  3249charge 0 multiplicity 1
 C        -2.747511        -0.048297        -3.063647
 C        -2.433879        -0.031610        -1.563720
 C        -3.166825        -0.914625        -0.556416
 C        -1.809720        -1.311724        -0.873520
 O        -0.664203        -1.150299         0.081902
 C        -0.032521         0.053855         0.058258
 O         1.183507         0.203013        -0.141577
 C        -0.986015         1.216294         0.261674
 C        -1.866854         1.312118        -0.996738
 H        -2.687533        -1.022301        -3.607887
 H        -3.744208         0.328191        -3.293507
 H        -1.781702         0.461174        -3.442114
 H        -3.390604        -0.501392         0.405275
 H        -3.879412        -1.554144        -0.997649
 H        -1.670945        -2.216955        -1.352127
 H        -1.523308         0.940662         1.203372
 H        -0.387975         2.100996         0.393422
 H        -2.802784         1.956109        -0.689830
 H        -1.147447         1.939640        -1.713267
