19
Iteration:   843
 C        -3.029008         0.071754        -2.974650
 C        -2.506044        -0.042773        -1.455528
 C        -3.057484        -1.206184        -0.543259
 C        -1.684549        -1.185767        -1.136250
 O        -0.587268        -1.085020        -0.193637
 C         0.037392         0.075306         0.043989
 O         1.017663         0.158106         0.764024
 C        -0.567162         1.299206        -0.632955
 C        -2.108815         1.251720        -0.694197
 H        -2.894580        -0.990185        -3.482924
 H        -4.067384         0.504494        -3.076122
 H        -2.351020         0.787894        -3.506960
 H        -3.149988        -0.940472         0.461145
 H        -3.783425        -1.921340        -0.831467
 H        -1.487828        -2.077390        -1.839685
 H        -0.122187         2.152675        -0.222234
 H        -0.227292         1.251337        -1.598552
 H        -2.614699         1.306929         0.235669
 H        -2.427364         2.186579        -1.384773
