19
Iteration:  2674
 C        -3.328807        -0.166991        -2.900178
 C        -2.482000        -0.024840        -1.622104
 C        -2.905912        -0.881326        -0.344701
 C        -1.634437        -1.194891        -1.090876
 O        -0.371607        -1.046098        -0.466810
 C         0.022576         0.128944         0.157916
 O         1.038512         0.013485         0.775584
 C        -0.974579         1.238196        -0.031926
 C        -1.792668         1.286163        -1.356528
 H        -3.824715        -1.155130        -2.960456
 H        -4.210758         0.548941        -2.691086
 H        -2.813029         0.140545        -3.797621
 H        -2.987702        -0.286444         0.524378
 H        -3.732499        -1.591924        -0.541128
 H        -1.584187        -2.086328        -1.610681
 H        -1.592919         1.186023         1.008285
 H        -0.387277         2.162336         0.049999
 H        -2.397246         2.144538        -1.281543
 H        -1.202918         1.422112        -2.229661
