19
Iteration:   116charge 0 multiplicity 1
 C        -2.891853        -0.027286        -2.981406
 C        -2.410607        -0.067845        -1.512882
 C        -3.202859        -1.081765        -0.576368
 C        -1.753254        -1.253611        -0.946519
 O        -0.717756        -1.003999        -0.022911
 C        -0.007799         0.121923         0.092553
 O         1.197507         0.073112         0.055307
 C        -0.867052         1.321977         0.160252
 C        -1.826410         1.306726        -1.058491
 H        -3.495142        -0.927872        -3.137691
 H        -3.569124         0.832600        -3.049960
 H        -2.185962        -0.261406        -3.785655
 H        -3.353830        -1.009155         0.536425
 H        -3.917671        -1.849575        -0.936790
 H        -1.534439        -2.157613        -1.537002
 H        -1.488343         1.353487         1.228275
 H        -0.048700         2.211960         0.107913
 H        -2.670596         1.975326        -0.972691
 H        -1.119180         1.478327        -1.951031
