19
Iteration:  1602charge 0 multiplicity 1
 C        -2.999870         0.068953        -2.888902
 C        -2.533885        -0.072953        -1.474633
 C        -2.966341        -1.151155        -0.460790
 C        -1.660904        -1.249626        -1.167496
 O        -0.454553        -1.219077        -0.355537
 C        -0.001940         0.102615         0.054719
 O         0.873276         0.243827         0.940398
 C        -0.594682         1.353092        -0.743657
 C        -2.110706         1.234180        -0.785409
 H        -3.057786        -0.829283        -3.454416
 H        -3.958968         0.651067        -2.868615
 H        -2.181832         0.604824        -3.420008
 H        -2.996178        -0.842310         0.609919
 H        -3.932708        -1.773395        -0.592155
 H        -1.691160        -2.076441        -1.899819
 H        -0.165988         2.156286        -0.141898
 H        -0.275550         1.340443        -1.741823
 H        -2.643065         1.422362         0.190260
 H        -2.601417         2.113899        -1.283415
