19
Iteration:  1583
 C        -2.991836         0.015109        -2.961358
 C        -2.539909        -0.052256        -1.462324
 C        -3.013615        -1.079529        -0.458604
 C        -1.618465        -1.262959        -1.053212
 O        -0.426968        -1.051594        -0.367504
 C        -0.044557         0.127000         0.086134
 O         0.948344         0.064891         0.821468
 C        -0.667098         1.303352        -0.585613
 C        -2.155763         1.283201        -0.854829
 H        -2.729570        -0.961832        -3.431551
 H        -4.092484         0.281270        -3.031048
 H        -2.328408         0.821220        -3.530451
 H        -3.059572        -0.861541         0.651924
 H        -3.793091        -1.912794        -0.491779
 H        -1.434261        -2.049752        -1.792408
 H        -0.385857         2.291874        -0.049583
 H        -0.067291         1.188248        -1.535801
 H        -2.907071         1.416173         0.121910
 H        -2.395184         2.154777        -1.536960
