19
Iteration:  4959charge 0 multiplicity 1
 C        -2.760858        -0.130508        -3.056318
 C        -2.366531        -0.067110        -1.571076
 C        -3.261054        -0.814044        -0.490459
 C        -1.770433        -1.228427        -0.946513
 O        -0.675817        -1.143312        -0.100958
 C        -0.019319         0.066685         0.163266
 O         1.194709         0.105183        -0.058649
 C        -0.956410         1.304036         0.269528
 C        -1.862047         1.239643        -0.982114
 H        -3.476561        -1.021185        -3.242560
 H        -3.219871         0.851553        -3.411825
 H        -1.824451        -0.414488        -3.602958
 H        -3.378756        -0.224217         0.425392
 H        -4.035940        -1.532410        -0.684898
 H        -1.745251        -2.158814        -1.586895
 H        -1.584841         1.353287         1.226733
 H        -0.251190         2.189476         0.337710
 H        -2.647658         1.812671        -0.663110
 H        -1.401039         1.894814        -1.740616
