19
Iteration:  2093charge 0 multiplicity 1
 C        -3.383438        -0.244922        -2.765318
 C        -2.418237        -0.075489        -1.577455
 C        -2.832091        -0.924681        -0.311797
 C        -1.581487        -1.220178        -1.183240
 O        -0.293936        -0.986152        -0.685129
 C        -0.052618         0.064855         0.152040
 O         0.772151        -0.083309         1.072161
 C        -0.668006         1.349559        -0.348696
 C        -1.946643         1.404829        -1.209388
 H        -3.512353        -1.293609        -3.044431
 H        -4.393633         0.244615        -2.804812
 H        -2.756694         0.244080        -3.454197
 H        -2.835677        -0.414875         0.668462
 H        -3.763657        -1.395702        -0.509700
 H        -1.749243        -2.079332        -1.956654
 H        -0.888397         1.978096         0.561218
 H         0.103021         2.239388        -0.861230
 H        -2.701375         1.914601        -0.680244
 H        -1.781883         2.005032        -2.029309
