19
Iteration:  4850
 C        -3.063585        -0.139673        -2.918737
 C        -2.503547         0.031793        -1.535878
 C        -3.083167        -0.774593        -0.372638
 C        -1.725944        -1.130005        -1.036748
 O        -0.400281        -1.223016        -0.308175
 C         0.026347         0.028237         0.036477
 O         1.089390         0.003278         0.563483
 C        -0.987356         1.239120        -0.042986
 C        -1.823841         1.363845        -1.234488
 H        -3.126324        -1.194651        -3.329355
 H        -4.172641         0.101139        -2.886448
 H        -2.677147         0.543842        -3.709409
 H        -3.009716        -0.472515         0.663519
 H        -3.996122        -1.365576        -0.537460
 H        -1.678601        -2.069955        -1.644518
 H        -1.472072         1.127727         0.886069
 H        -0.368249         2.108854         0.111653
 H        -2.531962         2.199440        -1.001400
 H        -1.275144         1.694602        -2.227267
