19
Iteration:  1965charge 0 multiplicity 1
 C        -3.085629         0.000907        -2.807680
 C        -2.498610         0.001483        -1.412670
 C        -3.001129        -1.239920        -0.659084
 C        -1.577516        -1.173936        -1.125842
 O        -0.613947        -1.012889        -0.117511
 C        -0.001402         0.133054         0.037641
 O         0.948297         0.126731         0.792196
 C        -0.588039         1.241061        -0.669411
 C        -2.060433         1.241642        -0.840604
 H        -3.432874        -0.951721        -3.269137
 H        -3.995124         0.718866        -3.009920
 H        -2.139771         0.307132        -3.528703
 H        -3.080281        -1.100657         0.435262
 H        -3.677885        -1.840554        -1.170111
 H        -1.215165        -1.776406        -2.029554
 H        -0.126850         2.174022        -0.334349
 H        -0.178125         1.230742        -1.687258
 H        -2.557927         1.391816         0.167016
 H        -2.423513         2.163075        -1.464230
