19
Iteration:  4626charge 0 multiplicity 1
 C        -3.180395        -0.057524        -2.917015
 C        -2.497726         0.063625        -1.561300
 C        -3.055935        -0.935132        -0.472595
 C        -1.730534        -1.267186        -1.063398
 O        -0.543919        -1.143714        -0.270689
 C         0.029459         0.036573         0.191043
 O         1.194611         0.074488         0.543178
 C        -0.836434         1.219341        -0.030695
 C        -1.842724         1.355332        -1.222764
 H        -3.399830        -1.105834        -3.184770
 H        -4.130842         0.538305        -2.967646
 H        -2.635448         0.371430        -3.784603
 H        -3.088233        -0.562108         0.572437
 H        -3.941425        -1.457932        -0.822192
 H        -1.824713        -2.190665        -1.662693
 H        -1.350268         1.424260         0.921089
 H        -0.170972         2.077585        -0.008922
 H        -2.546605         2.164859        -1.147980
 H        -1.167537         1.451137        -2.198972
