19
Iteration:   323charge 0 multiplicity 1
 C        -3.419142        -0.055095        -2.722539
 C        -2.524391        -0.020058        -1.545702
 C        -2.819781        -0.908688        -0.325633
 C        -1.631402        -1.198741        -1.142776
 O        -0.273886        -1.079558        -0.645159
 C        -0.049080         0.071231         0.161404
 O         0.849681        -0.036536         0.956064
 C        -0.854297         1.344741        -0.156165
 C        -1.762284         1.249137        -1.429502
 H        -3.801973        -1.034507        -2.948695
 H        -4.263216         0.543308        -2.494989
 H        -2.927743         0.234022        -3.683512
 H        -2.631879        -0.456923         0.652100
 H        -3.502216        -1.807170        -0.289522
 H        -1.637763        -2.064912        -1.744536
 H        -1.396157         1.732955         0.754321
 H        -0.030642         2.171856        -0.340839
 H        -2.387288         2.146386        -1.452844
 H        -1.130558         1.185651        -2.342320
