19
Iteration:   495charge 0 multiplicity 1
 C        -3.036523        -0.184358        -2.925266
 C        -2.430984        -0.053112        -1.532083
 C        -3.146163        -0.827651        -0.433784
 C        -1.767786        -1.233960        -0.933713
 O        -0.480765        -1.061797        -0.383878
 C         0.007147         0.107800         0.110054
 O         1.176407         0.000572         0.438111
 C        -0.927732         1.280483         0.043827
 C        -1.843514         1.334017        -1.176415
 H        -3.216269        -1.324510        -3.073319
 H        -3.995996         0.370108        -3.065441
 H        -2.471778         0.330715        -3.761130
 H        -3.229408        -0.576936         0.631449
 H        -3.963959        -1.506021        -0.759699
 H        -1.692970        -2.029200        -1.604925
 H        -1.590415         1.199489         0.817108
 H        -0.387655         2.152134         0.225026
 H        -2.700058         2.094090        -0.926845
 H        -1.348310         1.776569        -2.034887
