19
Iteration:  2736
 C        -2.819970        -0.065464        -3.057174
 C        -2.464766        -0.049932        -1.540305
 C        -3.109920        -0.962805        -0.413590
 C        -1.742512        -1.256047        -0.907905
 O        -0.597017        -1.124037        -0.062370
 C         0.010848         0.128621         0.028659
 O         1.214551         0.106066         0.124107
 C        -1.006899         1.233545         0.168624
 C        -1.940745         1.345105        -1.134894
 H        -2.868279        -1.027374        -3.547350
 H        -3.789373         0.379240        -3.305060
 H        -2.018990         0.423524        -3.677198
 H        -3.280879        -0.486468         0.599550
 H        -3.975696        -1.635909        -0.738606
 H        -1.783014        -2.189541        -1.442748
 H        -1.753428         0.949318         0.905195
 H        -0.610154         2.187602         0.404823
 H        -2.768533         2.037065        -0.694018
 H        -1.361708         1.760557        -2.066687
