19
Iteration:  1784
 C        -2.857174         0.031686        -2.987322
 C        -2.513512        -0.117247        -1.483113
 C        -3.147795        -1.175909        -0.544171
 C        -1.664027        -1.297746        -1.020637
 O        -0.561002        -1.161427        -0.130986
 C         0.016363         0.110849         0.032176
 O         1.105810         0.203320         0.520265
 C        -0.717924         1.400214        -0.354343
 C        -2.148352         1.282709        -0.840541
 H        -3.452909        -0.873443        -3.445432
 H        -3.714860         0.782394        -2.993000
 H        -2.057644         0.247131        -3.705628
 H        -3.369090        -0.876603         0.537229
 H        -3.769628        -1.972195        -0.998512
 H        -1.387110        -2.051965        -1.802745
 H        -0.522520         2.168280         0.401108
 H        -0.096798         1.836906        -1.010486
 H        -2.817931         1.727579        -0.070691
 H        -2.362187         2.109644        -1.605391
