19
Iteration:   670
 C        -3.027828        -0.045926        -2.936012
 C        -2.579274        -0.003222        -1.513141
 C        -3.059484        -0.946258        -0.382345
 C        -1.709926        -1.202343        -1.087750
 O        -0.484764        -1.122906        -0.372104
 C         0.043688         0.023510         0.079765
 O         1.057336         0.045497         0.772552
 C        -0.690486         1.285752        -0.397229
 C        -2.073049         1.324623        -0.987921
 H        -3.038032        -1.068976        -3.417449
 H        -4.055237         0.223140        -2.955893
 H        -2.342690         0.432493        -3.557919
 H        -2.964106        -0.570589         0.576572
 H        -3.751945        -1.672806        -0.635135
 H        -1.657998        -2.152438        -1.746141
 H        -0.672123         1.936885         0.476479
 H         0.119145         1.782151        -1.214573
 H        -2.781774         1.742169        -0.219398
 H        -2.084748         1.937391        -1.859417
