19
Iteration:   699
 C        -3.184834        -0.051143        -2.871058
 C        -2.481152        -0.054755        -1.487698
 C        -2.937815        -1.015821        -0.514239
 C        -1.632643        -1.253853        -1.151075
 O        -0.497678        -1.139889        -0.299588
 C        -0.024294         0.073660         0.090365
 O         0.917202         0.002566         0.843429
 C        -0.560290         1.365897        -0.534269
 C        -2.052257         1.418258        -0.917809
 H        -3.355641        -1.070790        -3.350895
 H        -4.119065         0.540827        -2.615432
 H        -2.586083         0.463948        -3.723009
 H        -2.917222        -0.748454         0.614985
 H        -3.747421        -1.762876        -0.728513
 H        -1.373293        -2.063823        -1.732012
 H        -0.299342         2.235405         0.114546
 H        -0.113351         1.547961        -1.487793
 H        -2.707807         1.755085        -0.149939
 H        -2.239057         2.093765        -1.850698
