19
Iteration:   993charge 0 multiplicity 1
 C        -2.739052        -0.052084        -3.036651
 C        -2.494540        -0.042739        -1.491155
 C        -3.138291        -1.014619        -0.548302
 C        -1.687035        -1.201885        -0.893386
 O        -0.636150        -1.094933        -0.013828
 C         0.012737         0.046136        -0.050737
 O         1.201094         0.077935         0.218957
 C        -0.894001         1.314861        -0.129432
 C        -2.168562         1.275983        -0.918408
 H        -2.769160        -1.051128        -3.286996
 H        -3.673582         0.406564        -3.368502
 H        -1.787319         0.484390        -3.403183
 H        -3.360489        -0.512579         0.397669
 H        -3.847281        -1.760075        -0.859647
 H        -1.296387        -1.914306        -1.721197
 H        -0.996664         1.554760         0.966017
 H        -0.086468         2.201589        -0.410310
 H        -2.930179         1.478472        -0.100207
 H        -2.213309         2.059333        -1.531762
