19
Iteration:  1363
 C        -3.002436         0.226030        -2.861552
 C        -2.510971        -0.077104        -1.463392
 C        -3.030312        -1.340679        -0.742829
 C        -1.568863        -1.204305        -1.155314
 O        -0.816159        -1.043150         0.027458
 C         0.114430         0.149096         0.041420
 O         1.034769         0.305374         0.763033
 C        -0.539551         1.132170        -0.889918
 C        -2.103251         1.130045        -0.590215
 H        -3.310755        -0.664889        -3.270184
 H        -3.918839         0.808933        -2.737029
 H        -2.269928         0.844850        -3.388490
 H        -3.252679        -1.088691         0.251407
 H        -3.631920        -2.036664        -1.231563
 H        -1.183214        -1.803624        -1.935844
 H        -0.141879         2.231510        -0.724269
 H        -0.518522         0.823112        -2.001153
 H        -2.185690         1.097361         0.418281
 H        -2.624160         2.001680        -0.916026
