19
Iteration:  2632charge 0 multiplicity 1
 C        -3.411799        -0.110797        -2.677748
 C        -2.427889        -0.094553        -1.538247
 C        -2.724206        -0.940419        -0.257646
 C        -1.602214        -1.300023        -1.185488
 O        -0.282495        -0.990511        -0.764175
 C        -0.078472         0.061932         0.084209
 O         0.641148         0.046506         1.022800
 C        -0.820729         1.324493        -0.184002
 C        -1.682655         1.304477        -1.367541
 H        -4.153235        -0.949989        -2.484541
 H        -4.031372         0.814145        -2.838236
 H        -3.027816        -0.230303        -3.721507
 H        -2.588588        -0.543511         0.679490
 H        -3.669951        -1.465357        -0.283356
 H        -1.662842        -2.169138        -1.747503
 H        -1.521502         1.544036         0.768948
 H        -0.031801         2.142574        -0.274070
 H        -2.336145         2.119243        -1.450710
 H        -0.962154         1.486428        -2.119985
