19
Iteration:   589charge 0 multiplicity 1
 C        -3.131269        -0.080259        -2.948789
 C        -2.463978        -0.034147        -1.526612
 C        -3.071027        -1.019995        -0.512601
 C        -1.739136        -1.278361        -1.033906
 O        -0.665550        -1.115411        -0.138934
 C         0.025888         0.047592         0.110731
 O         1.226125         0.150496         0.377084
 C        -0.816092         1.272979         0.029272
 C        -1.841237         1.376616        -1.195547
 H        -3.672994        -0.965320        -3.128237
 H        -3.666702         0.800399        -3.291882
 H        -2.308671         0.076598        -3.596867
 H        -3.107901        -0.863380         0.605804
 H        -3.975299        -1.673465        -0.848186
 H        -1.548592        -2.040783        -1.741067
 H        -1.441947         1.117072         0.990707
 H        -0.105320         2.196364         0.296724
 H        -2.532016         2.097321        -0.911184
 H        -1.388742         1.866744        -2.106320
