19
Iteration:  4052charge 0 multiplicity 1
 C        -2.952577        -0.009288        -2.929787
 C        -2.557349        -0.005070        -1.499862
 C        -3.154043        -1.082577        -0.493911
 C        -1.740287        -1.185799        -1.063109
 O        -0.634580        -1.042231        -0.121175
 C         0.117815         0.036291         0.018622
 O         1.249418         0.005446         0.438916
 C        -0.735564         1.288724        -0.124641
 C        -2.083178         1.294340        -1.067639
 H        -3.645087        -0.821468        -3.095575
 H        -3.444647         0.965696        -3.144633
 H        -2.085984        -0.069668        -3.731445
 H        -3.242925        -0.927925         0.545775
 H        -3.963112        -1.593969        -0.954881
 H        -1.320475        -1.838199        -1.881557
 H        -1.201455         1.406910         0.883781
 H        -0.000418         2.137134        -0.297941
 H        -2.942282         1.863480        -0.404091
 H        -1.948882         2.008408        -1.925770
