19
Iteration:  2417charge 0 multiplicity 1
 C        -2.950245        -0.111484        -2.972056
 C        -2.393132        -0.088638        -1.528290
 C        -3.153039        -0.811978        -0.399457
 C        -1.751273        -1.284514        -0.924298
 O        -0.482651        -1.124077        -0.369182
 C        -0.037929         0.081300         0.093201
 O         1.172006         0.218106         0.291315
 C        -1.140011         1.214063         0.194244
 C        -1.733002         1.273536        -1.175031
 H        -3.461603        -1.114567        -3.050346
 H        -3.784899         0.516958        -3.032529
 H        -2.166070         0.047995        -3.756754
 H        -3.344783        -0.455100         0.610516
 H        -3.803057        -1.617725        -0.621894
 H        -1.740759        -2.189569        -1.514747
 H        -1.866577         0.952385         1.004393
 H        -0.559687         2.219473         0.446759
 H        -2.535111         1.952282        -1.204197
 H        -1.078663         1.508451        -1.953911
