19
Iteration:  4307
 C        -3.385676        -0.109360        -2.628095
 C        -2.361903        -0.010770        -1.588874
 C        -2.801804        -0.832350        -0.363244
 C        -1.582965        -1.203035        -1.178344
 O        -0.359567        -1.090115        -0.574129
 C         0.007463         0.107843         0.011991
 O         0.717919        -0.189845         0.996102
 C        -0.742281         1.328616        -0.286463
 C        -1.849768         1.363210        -1.323561
 H        -3.720155        -1.065689        -3.199300
 H        -4.321570         0.214978        -2.043199
 H        -3.216966         0.655492        -3.397331
 H        -2.760755        -0.508126         0.675389
 H        -3.672329        -1.428810        -0.541670
 H        -1.648770        -2.133974        -1.804104
 H        -1.190019         1.632144         0.678237
 H         0.086373         2.085716        -0.540698
 H        -2.525748         2.066617        -0.928698
 H        -1.380439         1.807462        -2.220768
