19
Iteration:  2199charge 0 multiplicity 1
 C        -3.344080        -0.158678        -2.893703
 C        -2.480404        -0.042467        -1.624584
 C        -2.900890        -0.808964        -0.334508
 C        -1.691203        -1.202207        -1.120478
 O        -0.363559        -1.035510        -0.606662
 C         0.016142         0.039192         0.198548
 O         1.074016         0.133536         0.779473
 C        -1.022670         1.181259         0.093623
 C        -1.747671         1.205091        -1.318742
 H        -3.417535        -1.276824        -3.146383
 H        -4.275828         0.320383        -2.662505
 H        -2.742316         0.211621        -3.781036
 H        -2.841811        -0.300625         0.606831
 H        -3.860581        -1.289512        -0.388941
 H        -1.736916        -2.072992        -1.827256
 H        -1.753162         1.242497         0.917972
 H        -0.356646         1.969335         0.078058
 H        -2.508448         2.101017        -1.234530
 H        -1.038212         1.555963        -2.180349
