19
Iteration:  1462charge 0 multiplicity 1
 C        -2.885495        -0.079429        -2.949073
 C        -2.506113        -0.090592        -1.459479
 C        -3.161309        -1.092066        -0.639114
 C        -1.669198        -1.268897        -1.042615
 O        -0.561005        -1.107490        -0.170488
 C         0.044197         0.137436         0.073109
 O         1.158880         0.167098         0.495460
 C        -0.737155         1.361248        -0.298453
 C        -2.162329         1.266509        -0.828579
 H        -3.250546        -1.050865        -3.255184
 H        -3.650309         0.720904        -3.086023
 H        -1.933933         0.052236        -3.563320
 H        -3.536575        -0.902103         0.382774
 H        -4.025884        -1.612510        -1.085579
 H        -1.310489        -1.931649        -1.831591
 H        -0.691089         2.003693         0.714850
 H        -0.145816         2.070681        -1.019086
 H        -2.888011         1.430123        -0.025602
 H        -2.424395         2.040152        -1.544491
