19
Iteration:  3408charge 0 multiplicity 1
 C        -3.080343         0.149129        -2.819501
 C        -2.602665         0.020350        -1.426652
 C        -2.983294        -1.205141        -0.597108
 C        -1.591935        -1.150306        -1.170917
 O        -0.543327        -1.087789        -0.228788
 C         0.036345         0.040594         0.052329
 O         0.909336         0.042087         0.935177
 C        -0.512567         1.224358        -0.835962
 C        -2.131944         1.309534        -0.739998
 H        -3.096689        -0.802478        -3.345220
 H        -4.112656         0.603428        -2.906200
 H        -2.320262         0.735035        -3.342862
 H        -2.943185        -1.043160         0.544176
 H        -3.826672        -1.799907        -1.028285
 H        -1.369350        -1.870045        -2.036778
 H         0.030790         2.153589        -0.502587
 H        -0.175089         1.066289        -1.837985
 H        -2.432138         1.490794         0.233474
 H        -2.445563         2.119987        -1.455100
