19
Iteration:   858
 C        -3.007479         0.057525        -2.921848
 C        -2.635774        -0.021311        -1.513543
 C        -3.045894        -1.205960        -0.594240
 C        -1.623709        -1.209886        -1.069387
 O        -0.599731        -1.141879        -0.093982
 C         0.026585         0.091222         0.025282
 O         1.074107         0.133732         0.657834
 C        -0.583655         1.332245        -0.511042
 C        -2.112324         1.283462        -0.852067
 H        -3.195106        -0.952789        -3.425415
 H        -3.987336         0.588390        -3.000190
 H        -2.297334         0.523746        -3.603506
 H        -3.202639        -0.914323         0.505676
 H        -3.720752        -2.002632        -0.972331
 H        -1.329252        -1.763421        -1.912734
 H        -0.454121         2.032718         0.393911
 H         0.128480         1.690009        -1.419771
 H        -2.572609         1.429837         0.175871
 H        -2.399888         2.155377        -1.359427
