19
Iteration:  4681
 C        -3.444997        -0.100281        -2.861479
 C        -2.497760         0.009550        -1.553735
 C        -2.861200        -0.857611        -0.266211
 C        -1.704119        -1.197015        -1.148133
 O        -0.324151        -1.108036        -0.656844
 C        -0.066731        -0.016952         0.252022
 O         0.905615         0.011298         0.945515
 C        -0.776585         1.243872        -0.106382
 C        -1.699440         1.336277        -1.410030
 H        -3.540199        -1.064413        -3.383903
 H        -4.501139         0.176066        -2.660722
 H        -3.044635         0.538013        -3.697482
 H        -2.588589        -0.337236         0.653561
 H        -3.651528        -1.626099        -0.241633
 H        -1.947634        -2.089112        -1.839635
 H        -1.313730         1.821945         0.701523
 H         0.085073         1.862780        -0.325434
 H        -2.355817         2.145434        -1.195494
 H        -1.054969         1.686848        -2.346631
