19
Iteration:  1037charge 0 multiplicity 1
 C        -2.954712        -0.087404        -2.899118
 C        -2.473652        -0.086133        -1.515178
 C        -3.144406        -1.129725        -0.663665
 C        -1.665466        -1.235541        -1.069522
 O        -0.668794        -1.035436        -0.008474
 C        -0.024200         0.168661         0.083770
 O         1.145736         0.098543         0.279965
 C        -0.740102         1.385502        -0.086905
 C        -1.966855         1.217213        -0.956936
 H        -3.513151        -0.876539        -3.226671
 H        -3.625333         0.786951        -3.074242
 H        -2.062825         0.235678        -3.557057
 H        -3.239099        -0.973080         0.403457
 H        -3.799245        -1.814345        -1.058214
 H        -1.388208        -2.122836        -1.769093
 H        -0.958466         1.741184         0.910100
 H        -0.030672         2.236502        -0.376671
 H        -2.774042         1.775954        -0.376272
 H        -1.833425         1.795140        -1.776354
