19
Iteration:   206charge 0 multiplicity 1
 C        -3.029364        -0.140612        -2.944797
 C        -2.487784        -0.046570        -1.502503
 C        -3.131750        -0.892965        -0.378455
 C        -1.762388        -1.202116        -0.989899
 O        -0.496244        -1.096443        -0.473560
 C         0.023688         0.070078         0.146919
 O         1.158255         0.025183         0.552029
 C        -0.815659         1.284191        -0.066423
 C        -1.951839         1.327592        -1.116541
 H        -3.021125        -1.142440        -3.307661
 H        -4.122258         0.183923        -3.047281
 H        -2.306111         0.293418        -3.662242
 H        -3.454748        -0.329351         0.389650
 H        -3.814253        -1.638069        -0.652856
 H        -1.792257        -2.066440        -1.595768
 H        -1.209107         1.751226         1.075153
 H        -0.004836         2.049250        -0.362322
 H        -2.714455         1.999289        -0.703451
 H        -1.510143         1.826378        -2.019141
