19
Iteration:   125charge 0 multiplicity 1
 C        -2.927679        -0.075957        -2.953576
 C        -2.468800        -0.083497        -1.502214
 C        -3.187585        -1.100836        -0.593596
 C        -1.734375        -1.220274        -0.942824
 O        -0.707529        -1.048161        -0.039382
 C        -0.006148         0.106115         0.142504
 O         1.220110         0.047067         0.066286
 C        -0.830072         1.396360         0.163247
 C        -1.841435         1.284721        -1.092981
 H        -3.637605        -0.916295        -3.228434
 H        -3.432723         0.843838        -3.167752
 H        -2.028184         0.143238        -3.592800
 H        -3.521964        -0.811450         0.521987
 H        -3.746097        -1.798204        -1.260329
 H        -1.509287        -2.183264        -1.501948
 H        -1.455845         1.568036         1.215907
 H        -0.096704         2.313899         0.057705
 H        -2.660737         1.992035        -0.910654
 H        -1.382870         1.769395        -2.062125
