19
Iteration:  2271
 C        -2.946170        -0.067930        -3.006025
 C        -2.458962        -0.036183        -1.552311
 C        -3.091449        -1.059554        -0.526075
 C        -1.731851        -1.262601        -1.011614
 O        -0.601475        -1.102620        -0.065497
 C         0.013993         0.066649         0.034154
 O         1.190885         0.127377         0.297963
 C        -0.871090         1.333105        -0.016867
 C        -1.975249         1.337014        -0.990057
 H        -3.425825        -0.967609        -3.323894
 H        -3.592823         0.847374        -3.119448
 H        -2.065295         0.030478        -3.628691
 H        -3.220068        -0.959706         0.594806
 H        -3.887149        -1.703554        -0.940983
 H        -1.541530        -2.135781        -1.581649
 H        -1.377731         1.362589         0.906875
 H        -0.247534         2.268556        -0.173076
 H        -2.898585         1.748309        -0.688121
 H        -1.664226         1.974145        -1.789251
