19
Iteration:  4298charge 0 multiplicity 1
 C        -3.389841        -0.055824        -2.657807
 C        -2.351606        -0.015793        -1.535925
 C        -2.882151        -0.827323        -0.351269
 C        -1.596904        -1.256112        -1.183280
 O        -0.310252        -1.141299        -0.579747
 C         0.004167        -0.034946         0.019025
 O         0.698276        -0.069595         0.972139
 C        -0.714443         1.333104        -0.309145
 C        -1.821382         1.430776        -1.309126
 H        -3.351947        -1.105312        -3.061187
 H        -4.377419         0.227013        -2.303034
 H        -3.178020         0.653881        -3.424518
 H        -2.647040        -0.615896         0.689013
 H        -3.617153        -1.560151        -0.547650
 H        -1.782481        -2.173434        -1.798358
 H        -1.083997         1.586846         0.774552
 H        -0.028299         2.174419        -0.529177
 H        -2.632118         1.964669        -0.804351
 H        -1.703131         1.914831        -2.194195
