19
Iteration:  2810charge 0 multiplicity 1
 C        -2.532492        -0.078689        -2.955830
 C        -2.468439        -0.012974        -1.464677
 C        -3.111917        -0.947854        -0.524069
 C        -1.723787        -1.253600        -0.876571
 O        -0.728101        -1.114753         0.091439
 C        -0.065145         0.092530        -0.012024
 O         1.096956         0.132498        -0.273246
 C        -1.043983         1.249663         0.229241
 C        -1.932758         1.290847        -0.969387
 H        -3.125554        -0.864368        -3.472413
 H        -2.927197         0.825989        -3.439591
 H        -1.452732        -0.341955        -3.259944
 H        -3.270154        -0.563683         0.489066
 H        -3.944018        -1.543712        -0.999131
 H        -1.451022        -1.949210        -1.704346
 H        -1.624674         0.896152         1.244096
 H        -0.630214         2.221873         0.554760
 H        -2.794816         1.794741        -0.786087
 H        -1.371226         1.749643        -1.698091
