19
Iteration:   725
 C        -3.262537         0.019432        -2.797477
 C        -2.538478        -0.049649        -1.468513
 C        -2.993087        -1.166371        -0.581815
 C        -1.704514        -1.159296        -1.230110
 O        -0.541091        -1.159468        -0.287142
 C         0.049788         0.096050         0.086620
 O         0.854224         0.199828         0.997905
 C        -0.379917         1.278659        -0.690022
 C        -1.935635         1.257636        -0.903878
 H        -3.649920        -0.964258        -3.163948
 H        -4.003533         0.763932        -2.580297
 H        -2.692388         0.396930        -3.597690
 H        -2.973522        -1.086087         0.427801
 H        -3.809890        -1.727069        -0.906085
 H        -1.265014        -1.757496        -2.078818
 H        -0.202005         2.206827        -0.163389
 H         0.197315         1.370203        -1.786157
 H        -2.308517         1.357352         0.113536
 H        -2.359786         2.062386        -1.447086
