19
Iteration:  3478charge 0 multiplicity 1
 C        -3.246716         0.361653        -2.725119
 C        -2.547885         0.002637        -1.362269
 C        -2.933589        -1.291792        -0.562888
 C        -1.515141        -1.195869        -1.224628
 O        -0.436200        -1.191208        -0.287683
 C        -0.017825         0.026670         0.025466
 O         0.567143         0.236359         1.095575
 C        -0.384687         1.118597        -1.004111
 C        -1.918928         1.231501        -0.837059
 H        -3.709118        -0.481117        -3.314341
 H        -4.067237         0.980130        -2.392335
 H        -2.491173         0.916802        -3.430775
 H        -2.833599        -1.094396         0.488719
 H        -3.672195        -1.981833        -0.911740
 H        -1.266438        -1.815666        -2.041047
 H         0.314897         1.962207        -0.877328
 H        -0.289559         0.807365        -2.093087
 H        -2.200436         1.371819         0.320841
 H        -2.338964         2.156200        -1.216703
