19
Iteration:  1419charge 0 multiplicity 1
 C        -2.801519         0.012264        -2.949684
 C        -2.552786        -0.078106        -1.408488
 C        -3.085829        -1.123268        -0.569490
 C        -1.698732        -1.227048        -1.084440
 O        -0.620003        -1.065248        -0.132916
 C         0.034297         0.119767         0.013096
 O         1.088817         0.154586         0.548577
 C        -0.704343         1.318625        -0.481696
 C        -2.218593         1.182448        -0.763061
 H        -2.451887        -0.823466        -3.487637
 H        -3.795646         0.323502        -3.224214
 H        -2.050336         0.689320        -3.431999
 H        -3.197770        -0.970610         0.537243
 H        -3.917376        -1.782749        -0.923451
 H        -1.356395        -1.976226        -1.778987
 H        -0.475317         2.258570         0.224035
 H        -0.059076         1.693703        -1.410362
 H        -2.541581         1.231872         0.209936
 H        -2.557607         2.056680        -1.280981
