19
Iteration:    79
 C        -2.850962        -0.070510        -2.977572
 C        -2.364766        -0.001081        -1.560138
 C        -3.133907        -0.784003        -0.401004
 C        -1.754788        -1.239135        -0.908524
 O        -0.543828        -1.234600        -0.080623
 C        -0.043481         0.009019         0.133209
 O         1.147137         0.166860         0.068475
 C        -1.045227         1.151249         0.111918
 C        -1.884925         1.364082        -1.187449
 H        -3.410601        -1.045483        -3.079414
 H        -3.561984         0.704264        -3.165203
 H        -2.050295         0.008103        -3.718045
 H        -3.125388        -0.398193         0.626797
 H        -3.888335        -1.539431        -0.649071
 H        -1.646926        -2.146422        -1.534803
 H        -1.772569         1.014741         0.942935
 H        -0.542794         2.016432         0.312137
 H        -2.698279         2.081615        -0.956567
 H        -1.238333         1.817920        -1.966729
