19
Iteration:  3774
 C        -3.067434         0.019420        -2.957950
 C        -2.501733        -0.049157        -1.514382
 C        -3.099910        -0.960267        -0.530637
 C        -1.726857        -1.299559        -1.063299
 O        -0.557878        -1.186660        -0.224009
 C         0.067309         0.062858         0.059072
 O         1.163186         0.034669         0.592371
 C        -0.711774         1.387405        -0.201460
 C        -2.031687         1.292169        -0.976572
 H        -3.423947        -0.959167        -3.307741
 H        -3.897903         0.615519        -2.949442
 H        -2.343285         0.352104        -3.713587
 H        -3.196624        -0.569377         0.517584
 H        -4.044672        -1.302475        -0.924747
 H        -1.512409        -2.127812        -1.748888
 H        -0.831883         1.959593         0.699920
 H        -0.020512         2.037798        -0.849589
 H        -2.820135         1.648389        -0.348190
 H        -1.947017         1.919308        -1.888474
