19
Iteration:  3787
 C        -3.065108         0.033051        -2.930211
 C        -2.453125        -0.027660        -1.569772
 C        -3.097724        -1.009445        -0.457867
 C        -1.774808        -1.252500        -1.086732
 O        -0.558499        -1.097203        -0.225180
 C         0.101720         0.063518         0.037408
 O         1.140449        -0.028947         0.700796
 C        -0.655664         1.315866        -0.367501
 C        -2.139857         1.333963        -0.999779
 H        -3.094884        -0.981014        -3.332242
 H        -3.993339         0.577545        -3.063768
 H        -2.345737         0.646465        -3.507846
 H        -2.928085        -0.795929         0.611291
 H        -3.809731        -1.875850        -0.600834
 H        -1.700944        -2.046516        -1.803000
 H        -0.704251         1.719075         0.643700
 H         0.148593         2.048962        -0.939942
 H        -2.912401         1.660715        -0.249342
 H        -2.178098         2.163502        -1.718795
