19
Iteration:  3055
 C        -3.489728        -0.154423        -2.687807
 C        -2.461353        -0.071465        -1.580846
 C        -2.592217        -0.860095        -0.207107
 C        -1.592636        -1.209611        -1.197985
 O        -0.249642        -0.962089        -0.838238
 C        -0.105410         0.046043         0.195428
 O         0.517772        -0.090777         1.185932
 C        -0.704874         1.324774        -0.320570
 C        -1.755919         1.268878        -1.401127
 H        -3.564464        -1.139749        -3.169932
 H        -4.515654         0.087415        -2.289313
 H        -3.305178         0.575405        -3.404516
 H        -2.129548        -0.361606         0.600407
 H        -3.413457        -1.558603        -0.022122
 H        -1.726265        -2.106370        -1.895620
 H        -0.971276         2.096920         0.416293
 H         0.267979         1.876763        -0.624888
 H        -2.490349         2.330792        -1.288176
 H        -1.246367         1.495542        -2.330997
