19
Iteration:     1charge 0 multiplicity 1
 C        -3.166199        -0.135706        -2.889685
 C        -2.456884        -0.037226        -1.555036
 C        -3.011557        -0.834874        -0.381703
 C        -1.719891        -1.238560        -1.040797
 O        -0.475299        -1.123739        -0.378130
 C        -0.006089         0.060032         0.096402
 O         1.085766         0.093875         0.593858
 C        -0.924708         1.266021        -0.006570
 C        -1.785336         1.295775        -1.276094
 H        -3.573217        -1.138160        -3.053592
 H        -4.000817         0.573161        -2.941440
 H        -2.484007         0.089583        -3.717404
 H        -2.962670        -0.413396         0.615611
 H        -3.880835        -1.460596        -0.554207
 H        -1.701973        -2.147288        -1.631468
 H        -1.561238         1.261435         0.886353
 H        -0.291853         2.151579         0.071696
 H        -2.530841         2.096182        -1.200005
 H        -1.149759         1.545210        -2.135751
