19
Iteration:  1063
 C        -3.046006        -0.027658        -2.893088
 C        -2.427606        -0.002918        -1.568350
 C        -3.016492        -1.140404        -0.532034
 C        -1.679822        -1.283267        -1.056285
 O        -0.619661        -1.112154        -0.053671
 C         0.053764         0.103244         0.015996
 O         1.181393         0.062544         0.460447
 C        -0.895010         1.338072        -0.124306
 C        -2.053907         1.376999        -1.112930
 H        -3.545245        -0.992901        -3.321191
 H        -3.821538         0.732490        -3.003349
 H        -2.278326         0.293237        -3.499936
 H        -2.976064        -0.967335         0.539482
 H        -3.832102        -1.893742        -0.877262
 H        -1.436812        -2.009424        -1.782203
 H        -1.029229         1.676723         0.941227
 H        -0.122040         2.297314        -0.391432
 H        -2.801594         1.947525        -0.685371
 H        -1.587219         1.923024        -2.020805
