19
Iteration:  3401
 C        -3.067879         0.110243        -2.887307
 C        -2.556475         0.030725        -1.389950
 C        -3.009452        -1.182821        -0.567542
 C        -1.624123        -1.169246        -1.182236
 O        -0.535082        -1.154910        -0.238021
 C         0.013422         0.124415         0.096913
 O         0.954846         0.018335         0.873768
 C        -0.505661         1.249280        -0.771428
 C        -2.189736         1.339602        -0.744223
 H        -3.008033        -0.881601        -3.342859
 H        -4.026039         0.586978        -2.992917
 H        -2.293314         0.805770        -3.387187
 H        -3.065712        -1.005607         0.473622
 H        -3.764460        -1.847693        -1.017617
 H        -1.434362        -1.809900        -2.012695
 H         0.026466         2.216127        -0.471867
 H        -0.174732         1.020383        -1.794436
 H        -2.547455         1.580391         0.361327
 H        -2.380634         2.076526        -1.468121
