19
Iteration:  3759charge 0 multiplicity 1
 C        -3.058942        -0.041341        -2.905339
 C        -2.397991        -0.050610        -1.566439
 C        -3.200130        -0.963707        -0.562109
 C        -1.686953        -1.227369        -1.053429
 O        -0.551677        -1.173850        -0.211021
 C        -0.044693         0.024252         0.133276
 O         1.115904         0.103014         0.421626
 C        -0.696788         1.326789        -0.083955
 C        -1.943893         1.337535        -1.002776
 H        -3.695832        -0.905785        -3.119377
 H        -3.813792         0.819829        -2.903862
 H        -2.316638         0.065764        -3.728532
 H        -3.340789        -0.572487         0.415752
 H        -3.733844        -1.868616        -0.806258
 H        -1.731265        -2.135407        -1.677528
 H        -0.865365         1.712344         0.957759
 H         0.073032         1.856133        -0.430304
 H        -2.792895         1.888119        -0.587415
 H        -1.677667         1.989665        -1.850584
