19
Iteration:  3701charge 0 multiplicity 1
 C        -2.987658        -0.078866        -3.016745
 C        -2.445793        -0.010303        -1.510437
 C        -3.106560        -0.816919        -0.348203
 C        -1.815096        -1.275100        -0.966874
 O        -0.524291        -1.176307        -0.370820
 C        -0.029155         0.088735         0.166805
 O         1.170850         0.163466         0.235399
 C        -1.048167         1.139942         0.205777
 C        -1.682596         1.310623        -1.146819
 H        -3.430094        -1.080637        -3.247737
 H        -3.754381         0.820721        -3.270360
 H        -2.201460         0.073979        -3.800329
 H        -3.381121        -0.414952         0.662761
 H        -3.918540        -1.420499        -0.753467
 H        -2.011835        -2.205112        -1.409302
 H        -1.710736         1.021167         1.053043
 H        -0.510531         2.128718         0.299593
 H        -2.428211         2.163062        -1.024908
 H        -0.834603         1.407800        -1.802753
