19
Iteration:  4379charge 0 multiplicity 1
 C        -3.372077        -0.013850        -2.718927
 C        -2.356339        -0.060403        -1.551111
 C        -2.804020        -0.858745        -0.290727
 C        -1.652261        -1.311866        -1.083756
 O        -0.328306        -1.051436        -0.680346
 C        -0.072517         0.030886         0.122847
 O         0.900019        -0.096156         0.821792
 C        -0.992318         1.334119        -0.043244
 C        -1.713514         1.334646        -1.436686
 H        -4.188828        -0.635738        -2.821944
 H        -3.791338         0.957442        -2.740513
 H        -2.773409        -0.127497        -3.629826
 H        -2.671668        -0.471700         0.731252
 H        -3.872614        -1.108965        -0.336714
 H        -1.824159        -2.262742        -1.571629
 H        -1.697593         1.179274         0.763136
 H        -0.402863         2.244336         0.102908
 H        -2.525555         2.103644        -1.371594
 H        -1.056414         1.603142        -2.224351
