19
Iteration:  4092charge 0 multiplicity 1
 C        -2.943257        -0.024730        -2.919354
 C        -2.406290        -0.054347        -1.520872
 C        -3.134309        -0.868223        -0.509918
 C        -1.782255        -1.285110        -1.016930
 O        -0.526040        -1.182534        -0.168074
 C        -0.018516         0.043119         0.069626
 O         1.163289         0.080777         0.235030
 C        -0.937681         1.311055         0.119744
 C        -1.889491         1.333550        -1.112752
 H        -3.373448        -1.022095        -3.139578
 H        -3.791489         0.642162        -2.855215
 H        -2.307543         0.353089        -3.713173
 H        -3.071799        -0.570878         0.533904
 H        -3.970016        -1.489387        -0.865622
 H        -1.713519        -2.226120        -1.581790
 H        -1.412730         1.259521         1.118232
 H        -0.299918         2.120188         0.115399
 H        -2.790184         1.840822        -0.942132
 H        -1.341507         1.840048        -1.911347
