19
Iteration:  4827
 C        -3.229326        -0.069645        -2.873150
 C        -2.511871         0.003091        -1.505862
 C        -2.880800        -0.899874        -0.289117
 C        -1.742895        -1.234454        -1.129343
 O        -0.497624        -1.140377        -0.465085
 C         0.022260        -0.029725         0.076788
 O         1.014791         0.063813         0.819150
 C        -0.844300         1.276582        -0.165486
 C        -1.789070         1.356604        -1.310296
 H        -3.384214        -1.099024        -3.335056
 H        -4.241146         0.342133        -3.121861
 H        -2.618315         0.523735        -3.648613
 H        -2.799224        -0.364581         0.664795
 H        -3.845302        -1.424126        -0.311183
 H        -1.668954        -2.138865        -1.735182
 H        -1.340892         1.299678         0.798267
 H        -0.105970         2.024659        -0.027239
 H        -2.515586         2.153994        -1.088697
 H        -1.264638         1.658264        -2.347500
