19
Iteration:  4629
 C        -3.181870        -0.047859        -2.888688
 C        -2.475402         0.045547        -1.562166
 C        -3.043096        -0.941112        -0.471560
 C        -1.743216        -1.265801        -1.044457
 O        -0.532448        -1.134656        -0.279456
 C         0.011638         0.010698         0.167741
 O         1.186368         0.058557         0.567676
 C        -0.836205         1.245563        -0.051890
 C        -1.847760         1.383795        -1.248300
 H        -3.365742        -1.075153        -3.187785
 H        -4.161637         0.457473        -2.866805
 H        -2.656552         0.392689        -3.811483
 H        -2.994449        -0.616186         0.550922
 H        -3.899817        -1.485101        -0.863213
 H        -1.851508        -2.200033        -1.646034
 H        -1.395405         1.385225         0.837901
 H        -0.196756         2.059982         0.039961
 H        -2.594489         2.216985        -1.166626
 H        -1.171440         1.495948        -2.151540
