19
Iteration:  3206
 C        -2.852255        -0.123932        -3.061948
 C        -2.405174         0.002422        -1.527251
 C        -3.098136        -0.761341        -0.391227
 C        -1.765571        -1.265375        -0.917059
 O        -0.515495        -1.218219        -0.233486
 C        -0.068366         0.055617         0.137399
 O         1.102591         0.236618         0.060706
 C        -1.112923         1.142021         0.320067
 C        -1.768734         1.321643        -1.140442
 H        -3.068099        -1.231803        -3.105003
 H        -3.780239         0.459119        -3.407804
 H        -1.894691        -0.020923        -3.722213
 H        -3.332404        -0.387131         0.596875
 H        -3.905066        -1.371919        -0.619060
 H        -1.879673        -2.190422        -1.379469
 H        -1.921199         0.842777         1.024676
 H        -0.556964         2.040337         0.539587
 H        -2.490085         2.137256        -1.123431
 H        -0.931918         1.566822        -1.933988
