19
Iteration:   564charge 0 multiplicity 1
 C        -3.052704        -0.079724        -2.863778
 C        -2.386878        -0.054671        -1.511302
 C        -3.138184        -0.843049        -0.541327
 C        -1.733655        -1.236478        -0.938395
 O        -0.511180        -1.159921        -0.253902
 C        -0.012048         0.104012         0.092162
 O         1.160345         0.122964         0.290851
 C        -1.032149         1.311534         0.124951
 C        -1.772898         1.197701        -1.176988
 H        -3.515918        -1.037489        -3.099769
 H        -3.757478         0.750326        -2.872237
 H        -2.378726         0.327207        -3.704024
 H        -3.235131        -0.586163         0.494572
 H        -3.877800        -1.578943        -0.808077
 H        -1.743402        -2.148160        -1.693607
 H        -1.631478         1.047913         1.033326
 H        -0.660167         2.197578         0.241622
 H        -2.304051         2.135934        -1.354066
 H        -0.957958         1.277733        -1.905745
