19
Iteration:  1119charge 0 multiplicity 1
 C        -3.197684        -0.186636        -2.899979
 C        -2.423257        -0.052634        -1.563617
 C        -3.007860        -0.797800        -0.340548
 C        -1.682830        -1.247346        -1.037250
 O        -0.373894        -1.052461        -0.596176
 C        -0.019226         0.078138         0.120961
 O         1.062866         0.069422         0.644565
 C        -1.028203         1.266878         0.104659
 C        -1.815754         1.269308        -1.264672
 H        -3.241797        -1.293645        -3.169091
 H        -4.137038         0.346891        -2.765825
 H        -2.647895         0.242992        -3.687431
 H        -3.006132        -0.216529         0.648133
 H        -3.899957        -1.489736        -0.452930
 H        -1.654826        -2.157485        -1.578112
 H        -1.710017         1.100557         0.995538
 H        -0.315002         2.208130         0.279592
 H        -2.451939         2.100499        -1.257903
 H        -1.077682         1.515588        -2.077863
