19
Iteration:  1813charge 0 multiplicity 1
 C        -2.968008         0.030505        -2.963658
 C        -2.503749        -0.158701        -1.528221
 C        -3.111340        -1.189309        -0.666557
 C        -1.597081        -1.223942        -1.073971
 O        -0.697994        -1.011252         0.060313
 C         0.057145         0.135184         0.056439
 O         1.205724         0.138320         0.495653
 C        -0.720546         1.345194        -0.410532
 C        -2.155898         1.198869        -0.844759
 H        -3.647094        -0.762484        -3.262320
 H        -3.572818         0.905467        -2.984617
 H        -2.272682         0.132539        -3.806459
 H        -3.228803        -1.010216         0.346194
 H        -3.777942        -1.877499        -1.101863
 H        -1.045185        -1.841068        -1.812142
 H        -0.726275         1.881371         0.565177
 H         0.092541         2.011916        -1.070762
 H        -2.767928         1.474000         0.067843
 H        -2.408531         1.984655        -1.500354
