19
Iteration:  2793
 C        -2.542689        -0.133938        -3.029270
 C        -2.331411        -0.021716        -1.465601
 C        -3.270064        -1.016359        -0.552857
 C        -1.767382        -1.263706        -0.897990
 O        -0.657590        -1.192247         0.093670
 C        -0.067230         0.086296         0.016484
 O         1.110271         0.180816        -0.257997
 C        -0.990016         1.249575         0.308238
 C        -2.002314         1.446646        -0.949054
 H        -3.265433        -0.913860        -3.114709
 H        -2.920590         0.852886        -3.358191
 H        -1.642790        -0.300654        -3.567691
 H        -3.432775        -0.681735         0.448005
 H        -3.928962        -1.825467        -0.967887
 H        -1.618936        -2.096047        -1.542254
 H        -1.532824         1.267343         1.151609
 H        -0.361285         2.117534         0.245201
 H        -2.796740         2.348025        -0.821049
 H        -1.318641         1.838642        -1.861112
