19
Iteration:  4278
 C        -3.340416        -0.061883        -2.806273
 C        -2.551967         0.031813        -1.510980
 C        -2.816771        -0.939889        -0.325381
 C        -1.672400        -1.248176        -1.224509
 O        -0.337424        -1.256619        -0.645198
 C        -0.025868         0.014215         0.148256
 O         0.821999         0.082532         0.979153
 C        -0.656821         1.305665        -0.254965
 C        -1.885568         1.357831        -1.202171
 H        -3.468437        -1.023485        -3.208718
 H        -4.282739         0.379526        -2.641107
 H        -2.920438         0.632260        -3.507988
 H        -2.586026        -0.471724         0.642766
 H        -3.807478        -1.366643        -0.358480
 H        -1.922780        -1.954155        -2.038784
 H        -0.867483         1.914523         0.720982
 H         0.166082         1.775036        -0.732170
 H        -2.460444         2.294395        -0.826819
 H        -1.429250         1.664957        -2.126343
