19
Iteration:  4344charge 0 multiplicity 1
 C        -3.555863        -0.117895        -2.746498
 C        -2.587851         0.038141        -1.534991
 C        -2.791495        -0.922383        -0.300757
 C        -1.708571        -1.146732        -1.215332
 O        -0.286283        -1.032155        -0.784956
 C        -0.045879         0.021755         0.203806
 O         0.857660        -0.009045         1.046374
 C        -0.790387         1.209967        -0.108825
 C        -1.580993         1.292436        -1.388653
 H        -3.917157        -1.102158        -2.836699
 H        -4.296649         0.623736        -2.663397
 H        -3.022285         0.188102        -3.654918
 H        -2.528444        -0.503579         0.668366
 H        -3.749064        -1.447301        -0.512499
 H        -1.687223        -2.013196        -1.852686
 H        -1.287897         1.646909         0.866139
 H        -0.018618         1.953780        -0.174843
 H        -2.160943         2.209645        -1.593975
 H        -0.963151         1.183773        -2.180883
