19
Iteration:  3547
 C        -3.165321        -0.009419        -2.949651
 C        -2.530924        -0.042823        -1.580060
 C        -3.056219        -0.972855        -0.429145
 C        -1.724816        -1.231244        -1.114114
 O        -0.455512        -1.143717        -0.464060
 C         0.052423         0.052829         0.125220
 O         0.960422        -0.001334         0.897210
 C        -0.514586         1.361944        -0.399843
 C        -2.032337         1.346264        -0.897941
 H        -3.417636        -1.078996        -3.205738
 H        -4.171202         0.484510        -2.777857
 H        -2.559818         0.382639        -3.781464
 H        -2.962941        -0.571363         0.563216
 H        -3.825136        -1.706651        -0.710075
 H        -1.563416        -2.025188        -1.884706
 H        -0.203351         2.253609         0.083056
 H         0.064089         1.372883        -1.420477
 H        -2.865843         1.514634        -0.046240
 H        -2.134703         2.220075        -1.642644
