19
Iteration:  3654charge 0 multiplicity 1
 C        -3.100092        -0.085519        -3.007466
 C        -2.455625        -0.021512        -1.579921
 C        -3.050973        -0.748535        -0.366744
 C        -1.759259        -1.225682        -0.944751
 O        -0.527771        -1.154026        -0.285983
 C         0.013658        -0.002121         0.071831
 O         1.214722         0.119437         0.330200
 C        -1.053636         1.169781         0.176364
 C        -1.741595         1.327727        -1.217376
 H        -3.201700        -1.129640        -3.421523
 H        -3.994039         0.510694        -3.180033
 H        -2.312677         0.404419        -3.668743
 H        -3.208070        -0.484953         0.652403
 H        -3.836169        -1.478680        -0.637934
 H        -1.843460        -2.260021        -1.379007
 H        -1.882337         0.822216         0.771784
 H        -0.584947         2.109506         0.698333
 H        -2.561606         1.994547        -1.039956
 H        -1.010399         1.683745        -1.942534
