19
Iteration:  4366charge 0 multiplicity 1
 C        -3.382029        -0.036985        -2.649389
 C        -2.469627        -0.050217        -1.509560
 C        -2.908588        -0.778653        -0.297334
 C        -1.648058        -1.238029        -1.191491
 O        -0.276156        -1.051647        -0.720991
 C        -0.030753         0.120560         0.039665
 O         0.823820        -0.089408         0.923143
 C        -0.922040         1.267071        -0.095053
 C        -1.621259         1.253151        -1.386929
 H        -4.049931        -0.846437        -2.529150
 H        -3.911990         0.890845        -2.628116
 H        -2.879146        -0.081541        -3.624118
 H        -2.654895        -0.511396         0.720059
 H        -3.587659        -1.639776        -0.466042
 H        -1.621315        -2.170449        -1.712245
 H        -1.741298         1.221352         0.733532
 H        -0.418654         2.164804         0.202489
 H        -2.328797         2.106589        -1.512357
 H        -0.998955         1.265004        -2.192516
