19
Iteration:  1979charge 0 multiplicity 1
 C        -3.195976         0.009245        -2.888067
 C        -2.557960        -0.081476        -1.473967
 C        -2.956225        -1.221593        -0.619098
 C        -1.552347        -1.205149        -1.183890
 O        -0.603061        -1.110549        -0.117514
 C         0.004907         0.124063         0.095525
 O         0.982182         0.126061         0.846112
 C        -0.506887         1.374167        -0.629943
 C        -2.083955         1.341959        -0.876799
 H        -3.722631        -0.999430        -2.955996
 H        -3.905535         0.837774        -2.895868
 H        -2.529918         0.207539        -3.791079
 H        -2.998738        -1.271298         0.481220
 H        -3.682605        -1.950380        -1.073013
 H        -1.133034        -1.806569        -1.983977
 H        -0.272579         2.213898         0.036754
 H         0.025763         1.291747        -1.696898
 H        -2.695273         1.732529         0.003530
 H        -2.198412         1.989726        -1.696615
