19
Iteration:  2818charge 0 multiplicity 1
 C        -2.575749        -0.066058        -2.991403
 C        -2.385361        -0.067585        -1.459283
 C        -3.146407        -0.885124        -0.498559
 C        -1.742548        -1.313455        -0.913453
 O        -0.743144        -1.043173         0.096776
 C        -0.071728         0.128385         0.022606
 O         1.116392         0.124579        -0.269730
 C        -1.007601         1.146492         0.265683
 C        -1.951888         1.275866        -0.997681
 H        -3.066584        -0.995503        -3.368424
 H        -2.800653         0.926522        -3.336514
 H        -1.532159         0.034181        -3.247315
 H        -3.262721        -0.600920         0.569705
 H        -3.723795        -1.663766        -0.819320
 H        -1.423965        -1.991866        -1.836305
 H        -1.770109         0.870676         0.990106
 H        -0.734884         2.235021         0.385353
 H        -2.840973         2.002136        -0.723463
 H        -1.472592         1.845115        -1.840657
