19
Iteration:   891charge 0 multiplicity 1
 C        -2.957918        -0.024551        -2.921130
 C        -2.417473        -0.075190        -1.511529
 C        -3.083920        -1.186250        -0.669836
 C        -1.638842        -1.287179        -1.042683
 O        -0.697252        -1.033748        -0.062322
 C         0.010709         0.155049         0.059573
 O         1.156727         0.045698         0.422710
 C        -0.704807         1.403490        -0.213028
 C        -2.134717         1.300073        -0.893246
 H        -3.559699        -1.014842        -3.076224
 H        -3.679938         0.839451        -2.919665
 H        -2.295870         0.202666        -3.793548
 H        -3.353128        -0.806719         0.376452
 H        -3.848259        -1.970123        -1.027552
 H        -1.336912        -1.941944        -1.777330
 H        -0.549930         2.200500         0.611565
 H         0.156659         1.767403        -0.966793
 H        -2.963226         1.600110        -0.157494
 H        -2.022433         2.090171        -1.576695
