19
Iteration:   466charge 0 multiplicity 1
 C        -3.183424        -0.117906        -2.946983
 C        -2.562843        -0.029521        -1.547782
 C        -3.059546        -0.965430        -0.518336
 C        -1.677474        -1.198006        -1.147955
 O        -0.561901        -1.112136        -0.165088
 C         0.053098         0.082522         0.081775
 O         1.159902         0.056921         0.561375
 C        -0.789121         1.321120        -0.098426
 C        -1.895485         1.320168        -1.084190
 H        -3.633979        -1.036264        -3.051505
 H        -3.881903         0.665853        -3.122152
 H        -2.427820        -0.191353        -3.744651
 H        -2.895369        -0.656626         0.492220
 H        -3.859560        -1.601716        -0.579871
 H        -1.527036        -2.098640        -1.917396
 H        -1.213759         1.539504         1.019223
 H        -0.083309         2.214397        -0.328553
 H        -2.557913         2.071816        -0.829861
 H        -1.332814         1.606471        -1.980226
