19
Iteration:    52charge 0 multiplicity 1
 C        -2.900170        -0.208033        -2.990021
 C        -2.441007        -0.093309        -1.565709
 C        -3.179769        -0.627404        -0.391491
 C        -1.829097        -1.277918        -0.940692
 O        -0.543568        -1.172257        -0.340606
 C        -0.004407         0.036051         0.028673
 O         1.172044         0.219235         0.259738
 C        -0.982228         1.192467         0.262915
 C        -1.811449         1.301891        -1.150356
 H        -2.962075        -1.241235        -3.356595
 H        -3.835519         0.465474        -3.100460
 H        -2.006042         0.101413        -3.635378
 H        -3.250563        -0.201659         0.654318
 H        -3.915130        -1.403853        -0.543466
 H        -1.878849        -2.309444        -1.281685
 H        -1.588588         0.897333         1.119247
 H        -0.351836         2.168557         0.412330
 H        -2.712867         2.002194        -1.010384
 H        -0.998555         1.475454        -1.866028
