19
Iteration:  4822charge 0 multiplicity 1
 C        -3.256486        -0.067540        -2.869138
 C        -2.522645        -0.031887        -1.524851
 C        -2.908092        -0.889185        -0.289694
 C        -1.729271        -1.244948        -1.171508
 O        -0.454182        -1.113812        -0.489652
 C        -0.026250         0.009290         0.110735
 O         0.995739         0.048774         0.840843
 C        -0.828312         1.272167        -0.174687
 C        -1.736517         1.320596        -1.305428
 H        -3.441700        -1.050338        -3.253907
 H        -4.232978         0.444652        -2.862162
 H        -2.616387         0.421089        -3.592201
 H        -2.678015        -0.438841         0.684538
 H        -3.913685        -1.294387        -0.364927
 H        -1.684609        -2.175633        -1.740924
 H        -1.298534         1.494216         0.855661
 H        -0.055688         2.108337        -0.242222
 H        -2.488944         2.075928        -1.033531
 H        -1.384642         1.614037        -2.222085
