19
Iteration:  2777
 C        -2.656963        -0.135262        -2.998389
 C        -2.393060        -0.041862        -1.508032
 C        -3.198798        -0.954321        -0.631735
 C        -1.791882        -1.275380        -0.805588
 O        -0.650929        -1.197825         0.033568
 C        -0.073445         0.065612         0.074586
 O         1.113148         0.234695        -0.189732
 C        -0.945833         1.315746         0.230601
 C        -1.890986         1.348183        -0.945667
 H        -3.264929        -1.051543        -3.261942
 H        -3.109239         0.770479        -3.441165
 H        -1.653802        -0.162874        -3.588672
 H        -3.690966        -0.633657         0.324419
 H        -3.953125        -1.546662        -1.188515
 H        -1.511186        -2.180661        -1.449701
 H        -1.507192         1.032774         1.259184
 H        -0.182439         2.125788         0.293868
 H        -2.786620         1.756621        -0.615666
 H        -1.550833         2.016683        -1.680577
