19
Iteration:  2365charge 0 multiplicity 1
 C        -2.748701        -0.149118        -2.975386
 C        -2.393440        -0.016317        -1.532864
 C        -3.167402        -0.867261        -0.478498
 C        -1.799912        -1.240212        -0.859787
 O        -0.558922        -1.192321        -0.113825
 C        -0.023480         0.033372         0.045259
 O         1.159981         0.252529        -0.016080
 C        -1.058281         1.150772         0.232127
 C        -1.884747         1.379245        -1.067516
 H        -2.669079        -1.154741        -3.387793
 H        -3.734453         0.304683        -3.147182
 H        -1.971735         0.371346        -3.558329
 H        -3.466189        -0.289817         0.409481
 H        -3.994154        -1.452703        -0.855067
 H        -1.704639        -2.103761        -1.473737
 H        -1.730954         0.661232         1.062871
 H        -0.538986         2.004761         0.626693
 H        -2.732112         2.046242        -0.828389
 H        -1.382428         1.753342        -1.989239
