19
Iteration:  2202charge 0 multiplicity 1
 C        -3.310620        -0.175987        -2.900021
 C        -2.458836        -0.041868        -1.611764
 C        -2.925016        -0.797187        -0.347997
 C        -1.715621        -1.192051        -1.118645
 O        -0.353267        -1.040011        -0.580051
 C         0.031121         0.041668         0.144327
 O         1.077404         0.121461         0.772906
 C        -1.029524         1.192577         0.092082
 C        -1.775323         1.225458        -1.292125
 H        -3.386339        -1.243854        -3.227171
 H        -4.328844         0.330277        -2.649885
 H        -2.709728         0.198803        -3.721910
 H        -2.826714        -0.292520         0.572827
 H        -3.861100        -1.412498        -0.390418
 H        -1.770250        -2.128286        -1.771937
 H        -1.744030         1.233391         0.868275
 H        -0.334681         1.974715         0.147422
 H        -2.488925         2.114115        -1.171440
 H        -1.142568         1.480553        -2.183350
