19
Iteration:  4215charge 0 multiplicity 1
 C        -3.209511        -0.101074        -2.846678
 C        -2.463030        -0.004688        -1.523458
 C        -3.003369        -0.914898        -0.468896
 C        -1.730323        -1.223784        -1.141983
 O        -0.457989        -1.201086        -0.421426
 C        -0.003773         0.055025         0.052699
 O         1.037963         0.100828         0.727347
 C        -0.712026         1.282529        -0.081266
 C        -1.905399         1.346890        -1.150399
 H        -3.952802        -0.888070        -2.832212
 H        -3.850332         0.796266        -3.016231
 H        -2.529335        -0.386002        -3.734680
 H        -2.997574        -0.537827         0.571660
 H        -3.950575        -1.373038        -0.733710
 H        -1.640385        -2.061965        -1.827750
 H        -1.017497         1.498357         0.946952
 H        -0.022585         2.066452        -0.307657
 H        -2.700825         2.007911        -0.755704
 H        -1.506440         1.783956        -2.133506
