19
Iteration:  2148charge 0 multiplicity 1
 C        -3.419191        -0.023162        -2.625444
 C        -2.436582        -0.082451        -1.522781
 C        -2.793316        -1.006552        -0.378210
 C        -1.591681        -1.282078        -1.276792
 O        -0.324173        -1.030440        -0.590782
 C        -0.068468         0.096695         0.142948
 O         0.827161         0.074723         0.979820
 C        -0.891276         1.324543        -0.199957
 C        -1.715036         1.275580        -1.431646
 H        -4.045225        -0.912969        -2.558695
 H        -3.985604         0.951953        -2.449503
 H        -2.859644         0.107371        -3.526545
 H        -2.468400        -1.035045         0.634477
 H        -3.677830        -1.661773        -0.449478
 H        -1.624757        -2.233867        -1.913885
 H        -1.737834         1.276464         0.527473
 H        -0.318168         2.319386        -0.032158
 H        -2.379003         2.128594        -1.474055
 H        -1.183055         1.309161        -2.328076
