19
Iteration:  2216charge 0 multiplicity 1
 C        -3.159992        -0.189487        -2.906940
 C        -2.515826        -0.048219        -1.576708
 C        -3.026455        -0.804412        -0.389900
 C        -1.675113        -1.226456        -1.047319
 O        -0.352756        -1.115257        -0.511162
 C         0.038187         0.100376         0.058891
 O         1.048231         0.069736         0.681940
 C        -0.952919         1.236950         0.017368
 C        -1.864289         1.345251        -1.205179
 H        -3.267172        -1.214364        -3.159444
 H        -4.199790         0.258128        -2.889004
 H        -2.686987         0.390722        -3.679397
 H        -2.995578        -0.346989         0.651800
 H        -3.783429        -1.612622        -0.466175
 H        -1.708927        -2.165129        -1.528477
 H        -1.505422         0.965807         0.945470
 H        -0.502217         2.335279         0.269836
 H        -2.624548         2.051486        -1.178156
 H        -1.190787         1.684660        -1.957194
