19
Iteration:  1289
 C        -3.054252        -0.008360        -2.923679
 C        -2.548762         0.002325        -1.487697
 C        -2.927075        -1.102510        -0.452960
 C        -1.684996        -1.209126        -1.153103
 O        -0.467716        -1.138803        -0.382489
 C        -0.029187         0.021737         0.123196
 O         0.867232         0.198979         0.896468
 C        -0.541126         1.305798        -0.663215
 C        -2.103844         1.235228        -0.823009
 H        -3.085847        -1.045754        -3.237651
 H        -4.054694         0.426163        -2.946638
 H        -2.338271         0.717703        -3.444208
 H        -2.839171        -0.652117         0.595094
 H        -3.660655        -1.912372        -0.661416
 H        -1.554619        -1.926211        -1.888358
 H        -0.235164         2.239168        -0.066071
 H        -0.151572         1.278417        -1.680610
 H        -2.516026         1.398894         0.230815
 H        -2.514548         2.158088        -1.399027
