19
Iteration:  4370
 C        -3.376913        -0.037258        -2.655053
 C        -2.441773        -0.063604        -1.519990
 C        -2.889181        -0.791748        -0.298366
 C        -1.645249        -1.259265        -1.164051
 O        -0.277665        -1.053838        -0.707805
 C        -0.037596         0.120646         0.068265
 O         0.832714        -0.103533         0.885540
 C        -0.962899         1.276934        -0.084309
 C        -1.629305         1.297944        -1.384246
 H        -4.134753        -0.846095        -2.640490
 H        -3.794785         0.995767        -2.621570
 H        -2.835514        -0.082946        -3.608664
 H        -2.616771        -0.511949         0.729880
 H        -3.691614        -1.513719        -0.471469
 H        -1.748840        -2.252813        -1.659121
 H        -1.629951         1.185254         0.676641
 H        -0.447975         2.239033         0.185093
 H        -2.433440         2.056330        -1.468564
 H        -0.969524         1.308684        -2.366335
