19
Iteration:  1892
 C        -2.663551         0.237995        -2.917382
 C        -2.548914        -0.132326        -1.433219
 C        -3.192925        -1.258227        -0.630936
 C        -1.735882        -1.343684        -0.970419
 O        -0.610429        -1.112393         0.023055
 C         0.034062         0.175435        -0.028027
 O         1.071756         0.238363         0.577949
 C        -0.691625         1.317227        -0.820163
 C        -2.194458         1.169216        -0.617703
 H        -2.250673        -0.456274        -3.708485
 H        -3.687441         0.401564        -3.208102
 H        -2.275381         1.199770        -3.113471
 H        -3.466005        -0.917948         0.413791
 H        -3.985747        -1.699172        -1.238969
 H        -1.312815        -2.145492        -1.608366
 H        -0.271779         2.292477        -0.482547
 H        -0.567676         0.871293        -1.935418
 H        -2.342234         0.962528         0.476024
 H        -2.532065         2.075653        -1.028486
