19
Iteration:  4973charge 0 multiplicity 1
 C        -2.767280        -0.153208        -3.074959
 C        -2.467425        -0.030019        -1.563200
 C        -3.273236        -0.849154        -0.540553
 C        -1.856356        -1.206271        -0.855927
 O        -0.621474        -1.092346        -0.057030
 C         0.066366         0.105770         0.104274
 O         1.284846         0.074648         0.027750
 C        -0.880562         1.168079         0.254791
 C        -1.958382         1.334299        -1.043801
 H        -3.390824        -1.076528        -3.277569
 H        -3.444571         0.736941        -3.415604
 H        -1.946269        -0.102544        -3.821849
 H        -3.488170        -0.407899         0.438908
 H        -4.073552        -1.343202        -1.079055
 H        -1.658713        -2.070453        -1.413971
 H        -1.431556         0.835216         1.075059
 H        -0.500584         2.173564         0.365366
 H        -2.867790         1.853038        -0.679012
 H        -1.385990         1.837543        -1.944628
