19
Iteration:  4106
 C        -3.004569        -0.052801        -2.884010
 C        -2.354826        -0.013755        -1.576001
 C        -3.054180        -0.806715        -0.412998
 C        -1.698810        -1.265096        -0.972179
 O        -0.640975        -1.172026        -0.248922
 C        -0.010681         0.076659         0.096065
 O         1.192041         0.092465         0.221221
 C        -1.025520         1.167238         0.126424
 C        -1.821209         1.318021        -1.134141
 H        -3.134062        -1.012618        -3.369988
 H        -3.957977         0.507828        -3.012582
 H        -2.120817         0.374010        -3.535797
 H        -3.222298        -0.357777         0.539973
 H        -3.916514        -1.395671        -0.624494
 H        -1.676386        -2.178780        -1.632211
 H        -1.854292         0.997157         0.825156
 H        -0.630324         2.094433         0.473838
 H        -2.559817         2.013787        -0.953173
 H        -1.323804         1.731138        -2.041711
