19
Iteration:  3481charge 0 multiplicity 1
 C        -3.234132         0.343459        -2.737207
 C        -2.563209         0.003717        -1.368212
 C        -2.920512        -1.290147        -0.548879
 C        -1.517330        -1.214039        -1.241944
 O        -0.437602        -1.179097        -0.295174
 C        -0.026763         0.038264         0.026558
 O         0.574439         0.223756         1.096006
 C        -0.393426         1.109661        -0.986218
 C        -1.910807         1.270011        -0.835972
 H        -3.683130        -0.476978        -3.360627
 H        -4.115594         0.991890        -2.468316
 H        -2.527905         0.875702        -3.371557
 H        -2.815368        -1.140047         0.544378
 H        -3.667175        -2.013519        -0.800152
 H        -1.309627        -1.857686        -2.130911
 H         0.241646         1.923337        -0.837373
 H        -0.246545         0.735420        -2.096965
 H        -2.189656         1.401517         0.334932
 H        -2.317227         2.299959        -1.154069
