19
Iteration:  4610charge 0 multiplicity 1
 C        -3.135873        -0.062131        -3.009004
 C        -2.575919        -0.068370        -1.574355
 C        -3.175617        -0.837448        -0.478843
 C        -1.761230        -1.167641        -1.082123
 O        -0.546829        -1.164714        -0.205210
 C         0.043422         0.023419         0.098727
 O         1.237804         0.130966         0.440803
 C        -0.852278         1.271240         0.114460
 C        -1.766876         1.201511        -1.127609
 H        -3.612625        -1.024932        -3.261119
 H        -3.900887         0.687440        -3.191695
 H        -2.275145        -0.058069        -3.701128
 H        -3.024381        -0.437308         0.522315
 H        -3.932173        -1.588744        -0.756013
 H        -1.612391        -1.941755        -1.839836
 H        -1.454158         1.403959         1.092940
 H        -0.150113         2.232854        -0.025343
 H        -2.501009         2.021888        -0.893598
 H        -1.120677         1.501365        -1.859318
