19
Iteration:  3934charge 0 multiplicity 1
 C        -3.074854         0.101710        -2.801200
 C        -2.531094         0.029427        -1.394827
 C        -3.051461        -1.144055        -0.579085
 C        -1.648932        -1.190415        -1.228580
 O        -0.569434        -1.141145        -0.225610
 C         0.040434         0.057731        -0.001269
 O         0.830589         0.173696         0.889086
 C        -0.466167         1.177708        -0.832753
 C        -1.967741         1.274589        -0.686643
 H        -3.104490        -0.858051        -3.317117
 H        -4.108718         0.534469        -2.748342
 H        -2.570298         0.840537        -3.399655
 H        -3.029064        -1.068193         0.482763
 H        -3.829166        -1.745192        -1.017947
 H        -1.503559        -1.893037        -2.066389
 H        -0.140791         2.130641        -0.383823
 H        -0.089622         1.082674        -1.933238
 H        -2.197628         1.239297         0.391970
 H        -2.438201         2.123246        -1.164724
