19
Iteration:  4792
 C        -3.481780        -0.054649        -2.722547
 C        -2.453763        -0.097127        -1.602628
 C        -2.888193        -0.944990        -0.394261
 C        -1.617435        -1.273488        -1.114138
 O        -0.329842        -1.020935        -0.625240
 C        -0.005451         0.018119         0.171900
 O         0.841535        -0.094922         0.996220
 C        -0.761514         1.422376        -0.202577
 C        -1.705941         1.350961        -1.363185
 H        -4.094933        -0.949648        -2.610970
 H        -4.021101         0.863756        -2.479937
 H        -2.974050        -0.088061        -3.757776
 H        -3.131772        -0.275027         0.445998
 H        -3.751276        -1.506643        -0.732530
 H        -1.615659        -2.249501        -1.503767
 H        -1.204219         1.862355         0.775031
 H         0.006335         2.106616        -0.543363
 H        -2.467662         2.070959        -1.310200
 H        -1.180908         1.542857        -2.334204
