19
Iteration:  4613charge 0 multiplicity 1
 C        -3.157344        -0.062634        -3.014579
 C        -2.586406        -0.043191        -1.556299
 C        -3.146660        -0.842962        -0.481651
 C        -1.743100        -1.184984        -1.103132
 O        -0.555281        -1.182786        -0.219029
 C         0.043994         0.056083         0.135307
 O         1.235265         0.126323         0.460521
 C        -0.853023         1.255834         0.096078
 C        -1.764768         1.205006        -1.139709
 H        -3.587985        -1.078643        -3.219139
 H        -3.986459         0.660679        -3.173803
 H        -2.323163         0.055573        -3.644110
 H        -3.156363        -0.428758         0.558633
 H        -3.955043        -1.541987        -0.715429
 H        -1.501480        -1.951829        -1.792730
 H        -1.402344         1.405293         1.099068
 H        -0.143923         2.133152        -0.147977
 H        -2.410874         2.041765        -0.915905
 H        -1.144799         1.593042        -1.992614
