19
Iteration:    85charge 0 multiplicity 1
 C        -2.858803        -0.090712        -2.942276
 C        -2.393009        -0.032857        -1.531657
 C        -3.123545        -0.793926        -0.438877
 C        -1.718837        -1.228126        -0.956906
 O        -0.612507        -1.224069        -0.035731
 C        -0.031670         0.017418         0.102730
 O         1.186350         0.172418         0.060192
 C        -1.027943         1.157321         0.132948
 C        -1.882991         1.343879        -1.189395
 H        -3.528171        -0.913987        -3.144076
 H        -3.514431         0.813133        -3.260433
 H        -1.976277         0.125653        -3.601129
 H        -3.053551        -0.535577         0.596663
 H        -3.882665        -1.516528        -0.739964
 H        -1.675487        -2.173416        -1.461425
 H        -1.792956         1.063898         0.927978
 H        -0.435095         2.098696         0.479444
 H        -2.725481         2.093633        -1.152227
 H        -1.375325         1.877423        -2.010251
