19
Iteration:  2096charge 0 multiplicity 1
 C        -3.418284        -0.231091        -2.760472
 C        -2.434219        -0.067240        -1.559694
 C        -2.816709        -0.919527        -0.346524
 C        -1.567712        -1.228934        -1.200288
 O        -0.288903        -0.983840        -0.673533
 C        -0.038104         0.069526         0.155086
 O         0.777636        -0.071323         1.086762
 C        -0.669828         1.350221        -0.320261
 C        -1.932733         1.369553        -1.255553
 H        -3.565333        -1.230414        -2.914890
 H        -4.349569         0.329993        -2.774019
 H        -2.771228         0.282135        -3.419193
 H        -2.899399        -0.393551         0.586950
 H        -3.819099        -1.481345        -0.439699
 H        -1.751674        -2.050884        -1.932402
 H        -0.865894         1.878900         0.643317
 H         0.048255         2.138996        -0.853128
 H        -2.724033         1.822573        -0.697166
 H        -1.807611         2.055578        -2.203943
