19
Iteration:  1471
 C        -2.892551        -0.070735        -2.893427
 C        -2.486967        -0.087125        -1.488960
 C        -3.217773        -1.174170        -0.623676
 C        -1.715161        -1.222157        -1.103424
 O        -0.539796        -1.080893        -0.105999
 C        -0.005976         0.129309         0.026463
 O         1.156564         0.177077         0.510737
 C        -0.715565         1.392776        -0.297443
 C        -2.110451         1.219234        -0.860821
 H        -3.463253        -0.954388        -3.293368
 H        -3.589136         0.849396        -3.112509
 H        -2.051788         0.171671        -3.641910
 H        -3.188412        -0.869614         0.411132
 H        -3.807361        -1.871054        -1.121399
 H        -1.440206        -1.962365        -1.841275
 H        -0.725821         1.849819         0.763161
 H        -0.139673         2.085790        -0.933309
 H        -2.896865         1.501715         0.002081
 H        -2.055552         2.000095        -1.655123
