19
Iteration:  4356charge 0 multiplicity 1
 C        -3.460455        -0.042232        -2.689035
 C        -2.489777         0.025031        -1.509707
 C        -2.859844        -0.859509        -0.300975
 C        -1.634070        -1.164525        -1.197269
 O        -0.305713        -1.007203        -0.758112
 C         0.028675        -0.030501         0.091390
 O         0.799718        -0.007675         0.980606
 C        -0.846057         1.267892        -0.069720
 C        -1.649611         1.186124        -1.412510
 H        -3.994523        -0.928956        -2.619196
 H        -4.246279         0.649951        -2.693258
 H        -2.951333        -0.112666        -3.657042
 H        -2.821384        -0.474506         0.723510
 H        -3.751645        -1.560765        -0.339059
 H        -1.685645        -1.981241        -1.884150
 H        -1.561492         1.201460         0.809003
 H        -0.184700         2.114592        -0.012178
 H        -2.095554         2.202647        -1.554852
 H        -0.896910         1.128059        -2.131134
