19
Iteration:  4582charge 0 multiplicity 1
 C        -2.879730        -0.025566        -2.932892
 C        -2.436852        -0.055981        -1.507061
 C        -3.138563        -0.837381        -0.403520
 C        -1.762628        -1.327980        -0.862807
 O        -0.568222        -1.137801        -0.265020
 C         0.021871         0.075991         0.049205
 O         1.190067         0.064382         0.223282
 C        -1.054982         1.189058         0.111681
 C        -1.831116         1.374302        -1.175102
 H        -3.694501        -0.771711        -3.144894
 H        -3.264010         0.934251        -3.379629
 H        -2.103490        -0.455047        -3.568556
 H        -3.376208        -0.266505         0.501192
 H        -3.869532        -1.297556        -1.038504
 H        -1.809580        -2.150688        -1.545767
 H        -1.743516         1.052499         0.909151
 H        -0.597180         2.095555         0.394560
 H        -2.620648         1.963961        -0.752052
 H        -1.104084         1.941984        -1.916756
