19
Iteration:  3086
 C        -3.449263        -0.196049        -2.665010
 C        -2.440374        -0.004820        -1.571357
 C        -2.858144        -0.924561        -0.345075
 C        -1.567705        -1.191174        -1.130341
 O        -0.247115        -1.077606        -0.701166
 C        -0.009001         0.137153         0.103006
 O         0.638886        -0.097984         1.108544
 C        -0.655929         1.413932        -0.330064
 C        -1.798259         1.344612        -1.336634
 H        -3.575115        -1.171197        -3.136077
 H        -4.428931         0.052192        -2.190153
 H        -3.090669         0.432147        -3.488645
 H        -2.899894        -0.554048         0.657796
 H        -3.627488        -1.720835        -0.469699
 H        -1.721151        -2.042877        -1.888865
 H        -1.092828         1.779048         0.649369
 H         0.169810         2.023756        -0.686991
 H        -2.530047         2.126407        -1.165990
 H        -1.348837         1.519789        -2.337801
