19
Iteration:  2517charge 0 multiplicity 1
 C        -3.366844        -0.135263        -2.765947
 C        -2.547902        -0.034717        -1.501975
 C        -2.757541        -0.940864        -0.320631
 C        -1.618611        -1.245862        -1.232093
 O        -0.274148        -1.070450        -0.639926
 C        -0.059375         0.054072         0.121959
 O         0.677512         0.042487         1.072850
 C        -0.667332         1.346205        -0.320730
 C        -1.887112         1.336181        -1.287577
 H        -3.423108        -1.208631        -3.047051
 H        -4.367054         0.225664        -2.607050
 H        -2.971891         0.537744        -3.558548
 H        -2.349582        -0.688265         0.668655
 H        -3.642563        -1.650243        -0.161145
 H        -1.524197        -2.034145        -1.973506
 H        -0.768843         2.000753         0.605013
 H         0.357571         1.630918        -0.686098
 H        -2.562664         2.126392        -1.049547
 H        -1.574913         1.536228        -2.277689
