19
Iteration:  3025charge 0 multiplicity 1
 C        -3.486601        -0.141231        -2.572309
 C        -2.427237        -0.057155        -1.498662
 C        -2.699677        -0.822113        -0.277110
 C        -1.550212        -1.248960        -1.163280
 O        -0.125046        -0.973525        -0.811518
 C        -0.063917         0.071601         0.070445
 O         0.445242        -0.150009         1.181188
 C        -0.724045         1.366425        -0.355879
 C        -1.768043         1.302309        -1.462877
 H        -3.733010        -1.216895        -2.754694
 H        -4.394173         0.423650        -2.280548
 H        -3.261020         0.374249        -3.511335
 H        -2.226743        -0.630872         0.671778
 H        -3.624075        -1.378132        -0.280377
 H        -1.560790        -2.055430        -1.848017
 H        -1.350964         1.653717         0.444295
 H        -0.021519         2.244553        -0.302061
 H        -2.320164         2.138412        -1.398137
 H        -1.218903         1.354353        -2.387725
