19
Iteration:  2290
 C        -2.889048        -0.020622        -2.937957
 C        -2.418525        -0.105826        -1.503062
 C        -3.148264        -1.083012        -0.655076
 C        -1.644536        -1.266574        -0.937944
 O        -0.685161        -1.099603         0.031409
 C         0.079350         0.148006         0.009759
 O         1.253334         0.086371         0.190999
 C        -0.867718         1.310617         0.071376
 C        -2.087644         1.338770        -1.070751
 H        -3.534362        -0.886606        -3.082454
 H        -3.462624         0.997212        -3.076306
 H        -2.190987        -0.061286        -3.775464
 H        -3.585703        -0.574838         0.254795
 H        -3.865424        -1.815499        -1.041932
 H        -1.391677        -1.931036        -1.735563
 H        -1.386586         1.246672         1.060277
 H        -0.304059         2.106116         0.053658
 H        -3.005925         2.023882        -0.682770
 H        -1.861983         1.833778        -2.095894
