19
Iteration:  2466
 C        -3.287754        -0.146594        -2.893541
 C        -2.466111        -0.069449        -1.661486
 C        -2.904558        -0.993584        -0.384856
 C        -1.650744        -1.199974        -1.125608
 O        -0.456485        -1.122946        -0.381227
 C         0.019633         0.114648         0.137060
 O         1.047937         0.078010         0.788627
 C        -0.837881         1.364861        -0.124454
 C        -1.899628         1.313520        -1.248009
 H        -4.004948        -0.944448        -2.800309
 H        -3.979639         0.775055        -2.982873
 H        -2.608721        -0.145693        -3.732608
 H        -2.855463        -0.682627         0.672114
 H        -3.890795        -1.448684        -0.623776
 H        -1.563208        -2.126970        -1.786447
 H        -1.199990         1.450177         0.983917
 H        -0.114484         2.113614        -0.260986
 H        -2.781443         1.995049        -1.067495
 H        -1.356480         1.716552        -2.156048
