19
Iteration:  4036
 C        -3.000444        -0.037768        -2.941696
 C        -2.516270        -0.020811        -1.495020
 C        -3.058734        -1.044404        -0.564757
 C        -1.651106        -1.239247        -1.070434
 O        -0.640208        -1.102008        -0.130752
 C         0.106645         0.103086        -0.019580
 O         1.168643        -0.106601         0.477589
 C        -0.786454         1.425023        -0.189137
 C        -2.077857         1.394977        -0.914869
 H        -3.676916        -0.866041        -3.301414
 H        -3.593809         0.861142        -3.139335
 H        -2.125828        -0.139277        -3.566360
 H        -3.168101        -0.745595         0.535430
 H        -3.868583        -1.807490        -0.766918
 H        -1.527946        -2.105999        -1.711068
 H        -0.832952         1.696732         0.859938
 H        -0.220355         2.303547        -0.572960
 H        -2.901382         1.835655        -0.530221
 H        -1.949303         1.914813        -1.856239
