19
Iteration:    50charge 0 multiplicity 1
 C        -2.900702        -0.208604        -2.981171
 C        -2.447473        -0.095210        -1.567138
 C        -3.188874        -0.618941        -0.391751
 C        -1.840545        -1.282632        -0.955204
 O        -0.545741        -1.149855        -0.354262
 C        -0.007328         0.041446         0.047437
 O         1.191065         0.218821         0.271640
 C        -0.973063         1.185045         0.248330
 C        -1.813473         1.292072        -1.155342
 H        -2.936621        -1.232354        -3.344922
 H        -3.797926         0.411039        -3.089052
 H        -2.050015         0.087690        -3.604070
 H        -3.254816        -0.234226         0.689011
 H        -3.935041        -1.406524        -0.516085
 H        -1.884253        -2.324069        -1.315068
 H        -1.621277         0.841429         1.202933
 H        -0.377194         2.170090         0.402981
 H        -2.635021         1.946882        -1.021246
 H        -0.997292         1.471190        -1.887531
