19
Iteration:  2508
 C        -3.367768        -0.172280        -2.770866
 C        -2.468673        -0.023939        -1.517654
 C        -2.828466        -0.990133        -0.298690
 C        -1.604198        -1.223793        -1.242238
 O        -0.335208        -1.045815        -0.625859
 C        -0.022250         0.046136         0.112190
 O         0.754092         0.064993         1.070330
 C        -0.714996         1.296949        -0.308132
 C        -1.839518         1.362083        -1.276489
 H        -3.710346        -1.102866        -3.200401
 H        -4.392708         0.292287        -2.559315
 H        -2.858346         0.353534        -3.586323
 H        -2.660514        -0.498308         0.693741
 H        -3.754227        -1.644206        -0.426943
 H        -1.513762        -2.120677        -1.937734
 H        -0.960383         1.994719         0.669330
 H         0.123298         1.742063        -0.888060
 H        -2.536427         2.015060        -0.905457
 H        -1.511409         1.706162        -2.190052
