19
Iteration:   640
 C        -2.981582        -0.084952        -2.951040
 C        -2.472372        -0.038907        -1.533691
 C        -3.152559        -0.970428        -0.418913
 C        -1.775782        -1.277926        -1.033378
 O        -0.495671        -1.169272        -0.345947
 C         0.030788         0.052647         0.070758
 O         1.115174         0.058828         0.606110
 C        -0.725643         1.439509        -0.230416
 C        -1.993058         1.338973        -1.009048
 H        -3.373639        -1.103764        -3.089341
 H        -3.959610         0.476121        -3.055369
 H        -2.260959         0.362648        -3.796361
 H        -3.240695        -0.603061         0.601100
 H        -3.919187        -1.665719        -0.815974
 H        -1.842734        -2.275806        -1.677743
 H        -0.903131         1.797285         0.758356
 H         0.005543         1.997134        -0.562363
 H        -2.792227         1.813340        -0.279352
 H        -1.999432         2.044169        -1.825914
