19
Iteration:  2804
 C        -2.504724        -0.094231        -2.966061
 C        -2.459090        -0.005865        -1.466186
 C        -3.142941        -0.999456        -0.540383
 C        -1.721095        -1.217375        -0.882023
 O        -0.712607        -1.160636         0.091702
 C        -0.065639         0.089358        -0.020902
 O         1.105581         0.142565        -0.273092
 C        -1.065234         1.281522         0.265543
 C        -1.943900         1.316932        -0.956004
 H        -3.197348        -0.859626        -3.336309
 H        -2.928692         0.812021        -3.447752
 H        -1.565435        -0.353495        -3.412581
 H        -3.324278        -0.617774         0.453888
 H        -4.058805        -1.477434        -0.926053
 H        -1.485668        -2.048990        -1.517487
 H        -1.501619         0.984971         1.132992
 H        -0.457078         2.161867         0.471917
 H        -2.886183         2.031809        -0.765098
 H        -1.282171         1.791712        -1.818806
