19
Iteration:  2224
 C        -3.111742        -0.141734        -2.946290
 C        -2.516640        -0.024432        -1.536117
 C        -3.018896        -0.880398        -0.361514
 C        -1.644642        -1.250604        -0.975503
 O        -0.406452        -1.140952        -0.484427
 C         0.004221         0.109442         0.053200
 O         1.075817         0.069773         0.626633
 C        -0.928587         1.281573         0.010097
 C        -1.898039         1.349377        -1.215863
 H        -3.047815        -1.226104        -3.152595
 H        -4.220773         0.206260        -2.902990
 H        -2.461257         0.251676        -3.716477
 H        -3.274245        -0.407755         0.584098
 H        -3.945656        -1.433056        -0.655693
 H        -1.693599        -2.086417        -1.706935
 H        -1.412942         0.958402         0.905417
 H        -0.407868         2.149118         0.147869
 H        -2.783754         2.071490        -0.979173
 H        -1.303935         1.922440        -1.987757
