19
Iteration:  3798
 C        -3.015274         0.021945        -2.970286
 C        -2.589538        -0.016627        -1.491176
 C        -3.036418        -1.081970        -0.416738
 C        -1.670829        -1.134112        -1.094241
 O        -0.598168        -1.102711        -0.270139
 C         0.074574         0.006245         0.022372
 O         1.051136        -0.039696         0.732344
 C        -0.619658         1.320853        -0.437499
 C        -2.076610         1.359553        -0.952441
 H        -3.060070        -0.917632        -3.517188
 H        -4.042934         0.318029        -2.836481
 H        -2.480586         0.737496        -3.599836
 H        -3.095661        -0.537293         0.537827
 H        -3.738599        -1.958448        -0.559607
 H        -1.463165        -2.018453        -1.655810
 H        -0.608910         1.947526         0.455672
 H         0.137151         1.927716        -1.192875
 H        -2.680571         1.570829        -0.031234
 H        -2.235286         2.077691        -1.758835
