19
Iteration:   773charge 0 multiplicity 1
 C        -3.104939         0.296775        -2.685833
 C        -2.489160        -0.133244        -1.392896
 C        -2.986878        -1.224602        -0.583532
 C        -1.578226        -1.231297        -1.269069
 O        -0.542202        -1.196239        -0.208337
 C        -0.014815         0.114840         0.016181
 O         0.676671         0.317561         0.971187
 C        -0.451668         1.138204        -1.027778
 C        -1.966200         1.213507        -0.742301
 H        -3.326853        -0.574498        -3.192649
 H        -3.949762         0.974058        -2.546864
 H        -2.310201         0.825364        -3.304237
 H        -2.928197        -1.147760         0.604935
 H        -3.842179        -1.945223        -0.853935
 H        -1.211895        -1.864279        -2.002976
 H         0.052028         2.089015        -0.683527
 H        -0.184281         0.891164        -2.076255
 H        -2.063723         1.258388         0.423430
 H        -2.521620         2.050097        -1.184863
