19
Iteration:  3166
 C        -3.057694        -0.107952        -2.927204
 C        -2.487017        -0.061382        -1.512319
 C        -3.135069        -0.847811        -0.456964
 C        -1.741052        -1.279440        -0.982363
 O        -0.437286        -1.125270        -0.390796
 C         0.067850         0.104639         0.141403
 O         1.199399         0.127835         0.517455
 C        -1.019952         1.272433         0.049484
 C        -1.848481         1.256315        -1.238700
 H        -3.803564        -0.900951        -2.882869
 H        -3.495936         0.859971        -3.206224
 H        -2.444701        -0.224589        -3.733030
 H        -3.277043        -0.501677         0.584558
 H        -3.928692        -1.507443        -0.841194
 H        -1.672263        -2.184410        -1.548558
 H        -1.729596         1.164885         0.849304
 H        -0.434902         2.232641         0.318536
 H        -2.651399         2.032545        -1.201012
 H        -1.309864         1.532663        -2.097066
