19
Iteration:  1990
 C        -3.271614        -0.022050        -2.849320
 C        -2.490040        -0.028116        -1.519684
 C        -2.931088        -1.314589        -0.603705
 C        -1.635027        -1.226110        -1.239533
 O        -0.573134        -1.122489        -0.140846
 C         0.063978         0.085541         0.157687
 O         1.006980         0.152700         0.901247
 C        -0.551928         1.384284        -0.571017
 C        -2.040950         1.379865        -1.001742
 H        -4.011232        -0.824359        -3.217798
 H        -3.930109         0.844896        -2.783256
 H        -2.570526         0.133099        -3.751778
 H        -2.960815        -0.908769         0.395965
 H        -3.813020        -1.907357        -0.988228
 H        -1.453195        -2.051648        -1.896148
 H        -0.293243         2.258313         0.041822
 H         0.109137         1.702786        -1.536137
 H        -2.631807         1.615060        -0.045514
 H        -2.328824         2.131942        -1.687101
