19
Iteration:   173charge 0 multiplicity 1
 C        -2.908043        -0.071164        -2.995922
 C        -2.473640        -0.035069        -1.518538
 C        -3.071890        -0.876220        -0.421968
 C        -1.725429        -1.266894        -1.008233
 O        -0.623948        -1.206735        -0.114921
 C         0.020589         0.084650        -0.012918
 O         1.164858         0.081031         0.368861
 C        -0.826455         1.277376        -0.150231
 C        -2.011440         1.335499        -1.008326
 H        -2.970475        -1.085825        -3.247905
 H        -3.909742         0.391351        -3.318778
 H        -2.223725         0.564907        -3.557038
 H        -3.129395        -0.306691         0.407341
 H        -3.861605        -1.528365        -0.689610
 H        -1.699136        -2.025755        -1.733125
 H        -1.255157         1.234617         1.017881
 H        -0.094899         2.133078        -0.073321
 H        -2.837878         1.805365        -0.459703
 H        -1.937118         2.029819        -1.865922
