19
Iteration:  4150charge 0 multiplicity 1
 C        -3.062988        -0.096126        -2.918445
 C        -2.436863         0.002236        -1.521186
 C        -3.153975        -0.791636        -0.467794
 C        -1.833582        -1.274116        -0.952920
 O        -0.499959        -1.106882        -0.433985
 C         0.003215         0.002458         0.203413
 O         1.169831         0.230437         0.324793
 C        -0.945536         1.154965         0.212572
 C        -1.691321         1.193320        -1.189760
 H        -3.246413        -1.084757        -3.341505
 H        -4.094741         0.315970        -2.758053
 H        -2.387840         0.349362        -3.752862
 H        -3.537589        -0.254568         0.415524
 H        -4.050689        -1.288571        -0.807718
 H        -1.945884        -2.184933        -1.579089
 H        -1.593463         1.016835         1.070278
 H        -0.284019         1.980265         0.473715
 H        -2.362402         1.941368        -1.236748
 H        -0.976736         1.528323        -1.983306
