19
Iteration:  1719charge 0 multiplicity 1
 C        -3.016499         0.005903        -2.894485
 C        -2.545704        -0.051433        -1.434194
 C        -3.037454        -1.135544        -0.563376
 C        -1.636199        -1.223488        -1.128237
 O        -0.541762        -1.085780        -0.253184
 C         0.006473         0.144425         0.068904
 O         0.951691         0.162396         0.836187
 C        -0.563269         1.345063        -0.671711
 C        -2.078822         1.201675        -0.811908
 H        -2.790012        -0.935049        -3.538538
 H        -4.114145         0.189402        -2.977514
 H        -2.556521         0.757010        -3.526340
 H        -3.301112        -0.916421         0.496093
 H        -3.611572        -1.997316        -0.979473
 H        -1.430823        -2.054843        -1.855061
 H        -0.435300         2.206733        -0.003090
 H         0.022803         1.311550        -1.685641
 H        -2.485606         1.221323         0.213639
 H        -2.625268         2.143992        -1.087890
