19
Iteration:   793charge 0 multiplicity 1
 C        -3.033345         0.267519        -2.835741
 C        -2.577516        -0.025688        -1.320737
 C        -2.962000        -1.273490        -0.570435
 C        -1.672084        -1.358523        -1.128773
 O        -0.554095        -1.180452        -0.256774
 C         0.053321         0.065749        -0.082677
 O         0.670877         0.373960         0.907426
 C        -0.431517         1.208954        -0.907633
 C        -1.930159         1.220896        -0.655245
 H        -2.971959        -0.533752        -3.504998
 H        -3.989112         0.725432        -2.705822
 H        -2.465425         1.012590        -3.356119
 H        -3.165881        -1.382356         0.566044
 H        -3.738073        -1.972507        -1.006790
 H        -1.531750        -1.960786        -2.003164
 H         0.167656         2.099506        -0.506543
 H        -0.293628         0.969535        -2.124338
 H        -2.229130         1.171677         0.469707
 H        -2.248399         2.100595        -1.056361
