19
Iteration:  2838
 C        -2.642516        -0.046298        -3.047916
 C        -2.379964        -0.068349        -1.538334
 C        -3.159203        -0.981585        -0.541426
 C        -1.776223        -1.287868        -0.830514
 O        -0.686823        -1.160377         0.097082
 C        -0.054543         0.097380         0.000864
 O         1.151906         0.165635        -0.207942
 C        -1.012154         1.270893         0.276260
 C        -1.904946         1.297838        -0.956056
 H        -3.004579        -1.067228        -3.307140
 H        -3.419004         0.766856        -3.246070
 H        -1.790686         0.284113        -3.629415
 H        -3.322877        -0.365149         0.379112
 H        -4.004320        -1.445200        -0.978473
 H        -1.638086        -2.203794        -1.501127
 H        -1.526622         1.061913         1.138713
 H        -0.588271         2.299653         0.480322
 H        -2.991390         1.873234        -1.020897
 H        -1.225189         1.909377        -1.752554
