19
Iteration:  2505charge 0 multiplicity 1
 C        -3.384545        -0.169087        -2.764897
 C        -2.447374        -0.048101        -1.520870
 C        -2.843921        -0.997881        -0.310884
 C        -1.604436        -1.205373        -1.231417
 O        -0.345770        -1.046122        -0.618757
 C        -0.024032         0.043440         0.134440
 O         0.778415         0.064595         1.055123
 C        -0.713906         1.296399        -0.295000
 C        -1.835876         1.351788        -1.285226
 H        -3.666119        -1.155762        -3.192300
 H        -4.273815         0.378193        -2.562290
 H        -2.851796         0.292029        -3.646241
 H        -2.758779        -0.510712         0.646604
 H        -3.761840        -1.610435        -0.518428
 H        -1.580761        -2.056005        -1.851645
 H        -0.921474         1.885019         0.566576
 H        -0.001342         1.956526        -0.929580
 H        -2.619091         2.003766        -0.858015
 H        -1.460275         1.850388        -2.191187
