19
Iteration:  3129
 C        -3.274001        -0.086156        -2.869295
 C        -2.501844        -0.032513        -1.563801
 C        -2.876970        -0.924168        -0.374496
 C        -1.679958        -1.261521        -1.224742
 O        -0.459535        -1.132493        -0.430821
 C         0.027969         0.008309         0.143453
 O         0.981012         0.116167         0.859958
 C        -0.792905         1.363872        -0.168992
 C        -1.877713         1.268750        -1.237433
 H        -3.926747        -0.984064        -2.971192
 H        -4.054759         0.694702        -2.767994
 H        -2.566624        -0.131691        -3.789117
 H        -2.465671        -0.559481         0.560522
 H        -3.804425        -1.494844        -0.375310
 H        -1.609654        -2.073732        -2.004123
 H        -1.273990         1.644950         0.845406
 H        -0.174946         2.205509        -0.403979
 H        -2.595484         1.943687        -1.037613
 H        -1.387252         1.561186        -2.222737
