19
Iteration:   291charge 0 multiplicity 1
 C        -3.492089        -0.008939        -2.658920
 C        -2.443309        -0.063223        -1.598746
 C        -2.872805        -0.923472        -0.372867
 C        -1.704679        -1.319708        -1.205727
 O        -0.320783        -1.046754        -0.640285
 C        -0.000592         0.122313         0.137724
 O         0.896827         0.095592         0.956560
 C        -0.916065         1.301307        -0.035158
 C        -1.569353         1.167305        -1.450910
 H        -4.255208        -0.733338        -2.484204
 H        -4.045076         0.962495        -2.615539
 H        -3.045416         0.081217        -3.690557
 H        -2.500910        -0.770015         0.634233
 H        -3.694014        -1.674092        -0.412229
 H        -1.778314        -2.198852        -1.781789
 H        -1.635780         1.232049         0.559856
 H        -0.428104         2.337621         0.167267
 H        -2.160133         2.061618        -1.693953
 H        -0.903090         1.199900        -2.376846
