19
Iteration:  1001
 C        -2.787444        -0.068115        -3.010107
 C        -2.539230        -0.062168        -1.543296
 C        -3.145802        -1.031336        -0.604263
 C        -1.690284        -1.201915        -0.922551
 O        -0.593087        -1.138303         0.052863
 C         0.045363         0.082436        -0.028383
 O         1.215920         0.057154         0.232957
 C        -0.819663         1.368103        -0.157853
 C        -2.184356         1.363188        -0.879170
 H        -2.839837        -1.114638        -3.484423
 H        -3.681811         0.579156        -3.228841
 H        -1.847457         0.288361        -3.563203
 H        -3.304071        -0.671968         0.443548
 H        -3.882674        -1.894678        -0.915045
 H        -1.382924        -1.931789        -1.621993
 H        -1.261793         1.366428         0.865739
 H        -0.244102         2.153494        -0.342453
 H        -3.119673         1.488070        -0.202134
 H        -2.164396         2.218836        -1.626011
