19
Iteration:  1280charge 0 multiplicity 1
 C        -3.065535        -0.047210        -2.914619
 C        -2.535483        -0.030800        -1.545201
 C        -2.947922        -1.078187        -0.373752
 C        -1.672572        -1.103424        -1.151824
 O        -0.443176        -1.124067        -0.409133
 C        -0.005823         0.072209         0.061323
 O         0.867279         0.110250         0.929496
 C        -0.531326         1.291052        -0.592079
 C        -2.130021         1.276949        -0.860910
 H        -2.928079        -1.049159        -3.465303
 H        -4.107220         0.297624        -2.969623
 H        -2.553365         0.506822        -3.705026
 H        -2.885968        -0.720427         0.749908
 H        -3.646380        -1.989240        -0.416443
 H        -1.587459        -1.877810        -1.905320
 H        -0.304896         2.143043        -0.076857
 H        -0.094254         1.484419        -1.483823
 H        -2.766046         1.277432         0.134995
 H        -2.473859         2.169173        -1.502501
