19
Iteration:  3220
 C        -2.740481        -0.170912        -2.900308
 C        -2.310497        -0.026754        -1.555462
 C        -3.181559        -0.780029        -0.458347
 C        -1.801848        -1.226206        -0.875635
 O        -0.544294        -1.252917        -0.152638
 C        -0.054397         0.013268         0.076214
 O         1.124777         0.241760        -0.034873
 C        -1.179760         1.157335         0.253051
 C        -1.800053         1.356730        -1.109154
 H        -2.991837        -1.105377        -3.454835
 H        -3.707863         0.497885        -2.966038
 H        -2.018578         0.325292        -3.509315
 H        -3.172798        -0.157242         0.409064
 H        -4.007178        -1.411993        -0.870033
 H        -1.731323        -2.064101        -1.587697
 H        -1.846875         0.953801         1.066274
 H        -0.653634         2.102853         0.704421
 H        -2.570075         2.003080        -1.104186
 H        -0.985747         1.736571        -1.712592
