19
Iteration:  2434charge 0 multiplicity 1
 C        -3.069385        -0.131874        -2.885393
 C        -2.508858        -0.023846        -1.540405
 C        -3.035669        -0.932879        -0.389204
 C        -1.718932        -1.249900        -1.024101
 O        -0.437510        -1.182740        -0.345843
 C        -0.020230         0.127426         0.052783
 O         1.120524         0.185137         0.481385
 C        -1.025522         1.262265         0.091997
 C        -1.826802         1.295287        -1.245547
 H        -3.589466        -1.030851        -3.205843
 H        -3.668130         0.824746        -3.118331
 H        -2.248848        -0.191117        -3.597057
 H        -3.016081        -0.526011         0.623627
 H        -4.017926        -1.345994        -0.719574
 H        -1.632771        -2.176524        -1.673309
 H        -1.674875         1.024043         0.956615
 H        -0.426182         2.095875         0.341101
 H        -2.494108         2.258428        -1.375978
 H        -0.914892         1.458375        -1.972444
