19
Iteration:  4719charge 0 multiplicity 1
 C        -3.428233        -0.119443        -2.635485
 C        -2.395910        -0.062351        -1.593428
 C        -2.807693        -0.834945        -0.245185
 C        -1.668847        -1.235032        -1.185527
 O        -0.305504        -0.974955        -0.790371
 C         0.013024         0.139347         0.137867
 O         0.670678        -0.197189         1.068733
 C        -0.797136         1.351322        -0.197358
 C        -1.652226         1.274167        -1.464492
 H        -3.947504        -1.099844        -2.587340
 H        -4.065724         0.741355        -2.419184
 H        -2.939559         0.065104        -3.601801
 H        -2.624582        -0.287530         0.692871
 H        -3.788012        -1.293665        -0.336835
 H        -1.740311        -2.158493        -1.685156
 H        -1.382126         1.449887         0.686137
 H        -0.135804         2.237405        -0.138253
 H        -2.461407         2.074231        -1.262150
 H        -1.134276         1.448040        -2.452116
