19
Iteration:  4059
 C        -2.944406        -0.005930        -2.928269
 C        -2.610117         0.007418        -1.531745
 C        -3.150660        -1.057290        -0.517654
 C        -1.767874        -1.175967        -1.074560
 O        -0.628255        -1.093939        -0.116088
 C         0.079681         0.024445         0.059435
 O         1.256819         0.077537         0.395507
 C        -0.736255         1.275368        -0.105372
 C        -1.982298         1.315043        -1.034654
 H        -3.664249        -0.824322        -3.180122
 H        -3.541852         0.881766        -3.118380
 H        -2.090212        -0.117684        -3.609896
 H        -3.337890        -1.009695         0.575879
 H        -3.858677        -1.804844        -0.933825
 H        -1.504668        -2.032708        -1.698693
 H        -1.178981         1.410275         0.893087
 H        -0.109791         2.079477        -0.190886
 H        -2.751049         1.719719        -0.554090
 H        -1.895385         1.951160        -1.908883
