19
Iteration:    37
 C        -2.918666        -0.211370        -2.973464
 C        -2.493364        -0.039782        -1.530302
 C        -3.222797        -0.730077        -0.378137
 C        -1.887548        -1.241841        -0.935423
 O        -0.521730        -1.042740        -0.430581
 C         0.070051         0.109829         0.153269
 O         1.241339         0.161380         0.344243
 C        -1.001789         1.136033         0.131197
 C        -1.752999         1.179481        -1.153425
 H        -3.095944        -1.271683        -3.150913
 H        -3.833476         0.209276        -3.237217
 H        -2.228511         0.247913        -3.615173
 H        -3.106534        -0.157427         0.527726
 H        -4.203314        -1.211818        -0.567411
 H        -1.900512        -2.143838        -1.562777
 H        -1.763485         0.983326         1.069045
 H        -0.569886         2.089143         0.369026
 H        -2.404459         1.961370        -1.087489
 H        -1.137625         1.557935        -1.985791
