19
Iteration:   506charge 0 multiplicity 1
 C        -2.994662        -0.159176        -2.893437
 C        -2.476149        -0.001044        -1.525425
 C        -3.148597        -0.770573        -0.399523
 C        -1.747269        -1.209354        -0.978691
 O        -0.422519        -1.138671        -0.394712
 C        -0.006192         0.054579         0.085128
 O         1.148226         0.080361         0.407806
 C        -1.015260         1.219235         0.079210
 C        -1.827314         1.300538        -1.187721
 H        -3.047248        -1.264829        -3.283682
 H        -4.044961         0.203207        -2.883788
 H        -2.243530         0.291475        -3.621796
 H        -3.247757        -0.171145         0.515164
 H        -3.984727        -1.440348        -0.639060
 H        -1.817073        -2.192398        -1.349891
 H        -1.571834         1.088070         0.928761
 H        -0.493725         2.108145         0.187217
 H        -2.635063         2.137716        -1.065357
 H        -1.155350         1.549352        -2.008014
