19
Iteration:  1182
 C        -3.372219        -0.041565        -2.732311
 C        -2.413415        -0.082765        -1.587306
 C        -2.880271        -0.987021        -0.429771
 C        -1.564445        -1.273178        -1.176789
 O        -0.375543        -1.028587        -0.496128
 C        -0.051892         0.118051         0.132377
 O         0.918818         0.045650         0.871098
 C        -0.824781         1.299322        -0.128248
 C        -1.843812         1.287867        -1.325702
 H        -4.060878        -0.963574        -2.729356
 H        -4.047269         0.831524        -2.756570
 H        -2.890245        -0.157791        -3.705624
 H        -2.744182        -0.783081         0.701133
 H        -3.717328        -1.695206        -0.699545
 H        -1.552724        -2.146596        -1.737877
 H        -1.303096         1.625018         0.735783
 H        -0.134089         2.234303        -0.269298
 H        -2.641743         2.057049        -1.143145
 H        -1.407002         1.463594        -2.268511
