19
Iteration:  3493
 C        -3.205585         0.243279        -2.748208
 C        -2.555229        -0.034017        -1.419343
 C        -2.828204        -1.221684        -0.498721
 C        -1.654879        -1.262352        -1.291308
 O        -0.490422        -1.178113        -0.370317
 C        -0.014759         0.106391         0.053167
 O         0.608506         0.177876         1.076597
 C        -0.419963         1.119408        -0.910205
 C        -1.916549         1.389597        -0.748580
 H        -3.367987        -0.704662        -3.298057
 H        -4.118370         0.919206        -2.766235
 H        -2.493486         0.805734        -3.294321
 H        -2.640751        -1.191297         0.594633
 H        -3.659301        -1.867730        -0.834238
 H        -1.424992        -1.941586        -2.178491
 H         0.035976         2.053012        -0.677757
 H        -0.003730         0.700897        -1.910794
 H        -2.080464         1.441779         0.416513
 H        -2.234378         2.287212        -1.424339
