19
Iteration:  4867charge 0 multiplicity 1
 C        -3.076269        -0.159455        -2.920809
 C        -2.400535        -0.044648        -1.601183
 C        -3.112007        -0.732663        -0.492123
 C        -1.792505        -1.277851        -0.977764
 O        -0.579986        -1.131842        -0.361985
 C         0.021694         0.042668         0.180717
 O         1.209316         0.089546         0.408625
 C        -0.891182         1.216547         0.141101
 C        -1.825582         1.328102        -1.175864
 H        -2.984752        -1.189903        -3.206486
 H        -4.108017         0.102345        -2.909323
 H        -2.451923         0.388320        -3.646402
 H        -3.262264        -0.200462         0.472475
 H        -3.966162        -1.331591        -0.816267
 H        -1.801688        -2.147966        -1.576643
 H        -1.582563         1.308998         1.095307
 H        -0.281934         2.137844         0.218584
 H        -2.665307         2.034193        -1.114852
 H        -1.263847         1.686192        -1.965861
