19
Iteration:   200
 C        -2.981898        -0.151539        -2.973243
 C        -2.468264        -0.070440        -1.523586
 C        -3.135561        -0.893918        -0.382846
 C        -1.800487        -1.214342        -0.975565
 O        -0.503589        -1.123731        -0.414856
 C         0.037203         0.060817         0.115777
 O         1.197640         0.022612         0.517556
 C        -0.852381         1.323240        -0.010057
 C        -1.998452         1.368589        -1.104672
 H        -3.091100        -1.199759        -3.417167
 H        -3.975090         0.222690        -3.081659
 H        -2.341754         0.532120        -3.573712
 H        -3.344192        -0.260582         0.601270
 H        -3.889633        -1.662926        -0.741955
 H        -1.794596        -2.114239        -1.680848
 H        -0.986935         1.754623         0.845926
 H        -0.011660         1.899370        -0.400754
 H        -2.868898         2.007749        -0.839275
 H        -1.620853         1.950303        -1.952645
