19
Iteration:   761
 C        -3.141339         0.214066        -2.720293
 C        -2.454355        -0.020296        -1.398688
 C        -2.963755        -1.235786        -0.592644
 C        -1.523753        -1.217621        -1.162611
 O        -0.536762        -1.107209        -0.230019
 C        -0.002595         0.083176         0.008071
 O         0.690364         0.225379         1.017850
 C        -0.478288         1.162085        -1.001008
 C        -1.983587         1.196424        -0.794800
 H        -3.767274        -0.465814        -3.171938
 H        -3.885567         0.908772        -2.350161
 H        -2.551811         0.783702        -3.455173
 H        -2.998626        -1.099703         0.565878
 H        -3.618530        -1.977994        -1.149435
 H        -1.410897        -1.804567        -2.046319
 H         0.111957         2.115654        -0.917587
 H        -0.304975         0.730741        -2.068699
 H        -2.304600         1.252793         0.332380
 H        -2.386932         2.069041        -1.229499
