19
Iteration:   430
 C        -3.194107         0.052419        -2.826762
 C        -2.403496        -0.063023        -1.489149
 C        -3.041970        -1.047956        -0.500607
 C        -1.684407        -1.388028        -1.078653
 O        -0.491619        -1.191640        -0.238488
 C         0.015675         0.087722         0.032928
 O         1.010508         0.088010         0.708286
 C        -0.728957         1.423980        -0.308383
 C        -1.926146         1.353610        -1.172609
 H        -3.934223        -0.764742        -2.843115
 H        -3.749417         0.964244        -2.902636
 H        -2.501257         0.187880        -3.685130
 H        -2.900540        -0.767246         0.541022
 H        -3.827238        -1.835658        -0.722172
 H        -1.524413        -2.207559        -1.734533
 H        -1.007817         1.773267         0.730721
 H        -0.043620         2.065220        -0.642032
 H        -2.710489         2.049896        -0.845542
 H        -1.762617         1.747817        -2.137012
