19
Iteration:  4391
 C        -3.320073         0.011166        -2.838703
 C        -2.428268        -0.037362        -1.618908
 C        -2.798164        -0.808034        -0.243704
 C        -1.700313        -1.314299        -1.128328
 O        -0.405634        -1.101675        -0.610859
 C        -0.068433        -0.008179         0.168124
 O         0.975224        -0.022638         0.772891
 C        -0.961415         1.294558        -0.022852
 C        -1.770604         1.309224        -1.321738
 H        -3.959784        -0.787091        -2.618885
 H        -3.841771         0.944139        -2.903969
 H        -2.860824        -0.159116        -3.807374
 H        -2.463966        -0.360277         0.711361
 H        -3.625319        -1.503883        -0.355865
 H        -1.507036        -2.203098        -1.748820
 H        -1.639401         1.574200         0.732879
 H        -0.152023         2.054841         0.121141
 H        -2.594342         2.062774        -1.335942
 H        -1.122656         1.581097        -2.166904
