19
Iteration:  1594
 C        -2.992051         0.054355        -2.921810
 C        -2.562057        -0.089644        -1.457299
 C        -2.985110        -1.100181        -0.427329
 C        -1.669097        -1.290251        -1.136063
 O        -0.411002        -1.200872        -0.354734
 C        -0.010234         0.158042         0.100306
 O         0.888076         0.159076         0.872498
 C        -0.611495         1.360821        -0.633554
 C        -2.161167         1.248879        -0.833059
 H        -3.003167        -0.908248        -3.493813
 H        -4.017351         0.477925        -3.165532
 H        -2.238251         0.812417        -3.430551
 H        -2.843239        -0.609025         0.568945
 H        -3.815728        -1.784844        -0.745480
 H        -1.518874        -1.936731        -1.998754
 H        -0.214286         2.402593        -0.354037
 H        -0.201618         1.223674        -1.625948
 H        -2.554868         1.382947         0.319495
 H        -2.559208         2.084894        -1.486362
