19
Iteration:  4655charge 0 multiplicity 1
 C        -3.251493        -0.064394        -2.757584
 C        -2.373134        -0.005432        -1.507632
 C        -2.947492        -0.835273        -0.363732
 C        -1.630655        -1.267931        -1.191070
 O        -0.453827        -1.176368        -0.397813
 C        -0.000506         0.099609         0.009406
 O         0.910741        -0.040316         0.761178
 C        -0.822403         1.318325        -0.130849
 C        -1.791360         1.308917        -1.301859
 H        -3.291169        -1.012954        -3.343770
 H        -4.309055         0.161771        -2.517198
 H        -2.968375         0.606444        -3.527454
 H        -2.792986        -0.336090         0.610926
 H        -3.935699        -1.178850        -0.679158
 H        -1.866379        -2.094981        -1.792572
 H        -1.437307         1.346937         0.848761
 H        -0.227775         2.346474        -0.022878
 H        -2.639596         2.051264        -1.179627
 H        -1.253637         1.507831        -2.138608
