19
Iteration:   978charge 0 multiplicity 1
 C        -2.634853        -0.061617        -2.981503
 C        -2.450956        -0.087127        -1.521674
 C        -3.153702        -1.023081        -0.489581
 C        -1.789150        -1.261940        -0.997544
 O        -0.684581        -1.110715        -0.074353
 C         0.008416         0.118546        -0.003367
 O         1.197059         0.125110         0.190915
 C        -0.793585         1.337519        -0.097561
 C        -2.186789         1.297382        -0.810418
 H        -2.484766        -1.078217        -3.548928
 H        -3.662132         0.369502        -3.176435
 H        -1.893263         0.509089        -3.585368
 H        -3.283217        -0.658095         0.550968
 H        -3.987107        -1.737106        -0.905970
 H        -1.721730        -2.142494        -1.526937
 H        -0.988079         1.692016         0.930131
 H        -0.254255         1.964331        -0.608496
 H        -3.155542         1.619282        -0.282060
 H        -1.986374         1.981528        -1.742268
