19
Iteration:  4828
 C        -3.222510        -0.069523        -2.878273
 C        -2.509370         0.011907        -1.504161
 C        -2.879074        -0.898784        -0.289025
 C        -1.744420        -1.229946        -1.116652
 O        -0.504439        -1.148693        -0.458824
 C         0.034848        -0.032807         0.071042
 O         1.015525         0.065154         0.810743
 C        -0.843677         1.274881        -0.157511
 C        -1.802951         1.361574        -1.313528
 H        -3.355576        -1.107363        -3.337788
 H        -4.239197         0.328283        -3.150430
 H        -2.632387         0.522769        -3.634904
 H        -2.815333        -0.362683         0.650178
 H        -3.822569        -1.465222        -0.305889
 H        -1.674782        -2.147455        -1.752961
 H        -1.359235         1.256671         0.767287
 H        -0.108708         2.025442         0.012165
 H        -2.551957         2.198710        -1.101613
 H        -1.233409         1.661991        -2.363840
