19
Iteration:   281
 C        -3.472852         0.009720        -2.662172
 C        -2.406346        -0.075504        -1.604431
 C        -2.812212        -0.930268        -0.389186
 C        -1.683094        -1.313895        -1.205984
 O        -0.334511        -1.102926        -0.619694
 C        -0.048129         0.067006         0.148566
 O         0.910293         0.117089         0.889750
 C        -0.983026         1.330814        -0.039325
 C        -1.594176         1.215238        -1.404602
 H        -4.152925        -0.786569        -2.466565
 H        -3.968436         1.035569        -2.497335
 H        -3.225812        -0.225200        -3.736998
 H        -2.691680        -0.422792         0.506941
 H        -3.776293        -1.357703        -0.449405
 H        -1.679179        -2.232736        -1.763196
 H        -1.703393         1.309808         0.687786
 H        -0.306515         2.241801         0.140768
 H        -2.267019         2.050023        -1.644393
 H        -0.659414         1.108786        -2.065051
