19
Iteration:  2801charge 0 multiplicity 1
 C        -2.510314        -0.106320        -2.982580
 C        -2.428184        -0.011496        -1.462008
 C        -3.172875        -1.014408        -0.543506
 C        -1.727503        -1.212888        -0.897761
 O        -0.698710        -1.178826         0.094926
 C        -0.075940         0.093903        -0.017223
 O         1.117122         0.150128        -0.272536
 C        -1.048293         1.284197         0.279391
 C        -1.967355         1.359385        -0.958311
 H        -3.242260        -0.895232        -3.195771
 H        -2.880046         0.849969        -3.432826
 H        -1.523796        -0.316334        -3.535578
 H        -3.353538        -0.646332         0.457940
 H        -4.130255        -1.563523        -0.921867
 H        -1.531462        -2.090735        -1.426569
 H        -1.598347         0.992160         1.263359
 H        -0.388420         2.123077         0.351626
 H        -2.753924         2.106254        -0.806192
 H        -1.357253         1.778378        -1.788964
