19
Iteration:  4191charge 0 multiplicity 1
 C        -3.129114        -0.016298        -2.951221
 C        -2.556778         0.003402        -1.554705
 C        -2.935385        -0.891450        -0.328770
 C        -1.715245        -1.150947        -1.101341
 O        -0.467079        -1.200342        -0.330442
 C        -0.004483         0.019123         0.126064
 O         1.142092         0.056360         0.549935
 C        -0.921135         1.202878         0.043601
 C        -1.924160         1.353133        -1.301085
 H        -3.698231        -0.918649        -3.099219
 H        -3.804205         0.787513        -3.130319
 H        -2.293736        -0.075357        -3.692390
 H        -2.693846        -0.540653         0.674105
 H        -3.778612        -1.563299        -0.388448
 H        -1.643777        -2.097542        -1.695134
 H        -1.555975         1.254715         0.991672
 H        -0.311898         2.001334         0.098051
 H        -2.684128         2.205468        -1.087191
 H        -1.319431         1.595169        -2.224587
