19
Iteration:  2666
 C        -3.352240        -0.127675        -2.870150
 C        -2.496967        -0.040003        -1.610900
 C        -2.895309        -0.895271        -0.280096
 C        -1.615127        -1.165235        -1.150135
 O        -0.310574        -1.044623        -0.522820
 C         0.008388         0.107315         0.184915
 O         1.031190        -0.005867         0.867854
 C        -1.007145         1.232255        -0.092826
 C        -1.815174         1.283474        -1.398105
 H        -3.935001        -1.112874        -2.873375
 H        -4.129720         0.652331        -2.631647
 H        -2.883423        -0.038495        -3.896049
 H        -2.930598        -0.264272         0.539162
 H        -3.731736        -1.572706        -0.386478
 H        -1.606416        -2.067953        -1.788307
 H        -1.607483         1.366990         0.946140
 H        -0.388427         2.214525        -0.096482
 H        -2.430859         2.157896        -1.445852
 H        -1.015706         1.318531        -2.127832
