19
Iteration:  3525
 C        -3.147796        -0.013234        -2.773115
 C        -2.477956         0.022476        -1.435944
 C        -3.061879        -1.019869        -0.500903
 C        -1.648114        -1.188270        -1.131216
 O        -0.395996        -1.167619        -0.438601
 C         0.039540         0.068899        -0.013987
 O         0.705069        -0.010989         0.960345
 C        -0.481023         1.322624        -0.688844
 C        -1.988555         1.336357        -0.858006
 H        -3.236397        -1.061290        -3.180106
 H        -4.203512         0.401762        -2.641955
 H        -2.465859         0.507769        -3.465965
 H        -3.057950        -0.733953         0.543935
 H        -3.789354        -1.647037        -1.026950
 H        -1.492918        -1.936392        -1.982678
 H        -0.213381         2.068236         0.023165
 H         0.240065         1.613878        -1.588999
 H        -2.337009         1.577680         0.321499
 H        -2.429750         2.298757        -1.366512
