19
Iteration:  3895charge 0 multiplicity 1
 C        -3.085470         0.378153        -2.674304
 C        -2.535440        -0.072189        -1.316310
 C        -3.038526        -1.230843        -0.647631
 C        -1.604214        -1.297368        -1.233957
 O        -0.559685        -1.115581        -0.189453
 C         0.011833         0.124376        -0.013959
 O         0.704745         0.290322         0.945706
 C        -0.454679         1.084817        -1.006031
 C        -1.916626         1.156156        -0.746621
 H        -3.741059        -0.410484        -3.141241
 H        -3.749897         1.156780        -2.392708
 H        -2.290152         0.633000        -3.429295
 H        -3.058738        -1.443029         0.460206
 H        -3.700144        -1.959890        -1.247016
 H        -1.275012        -2.079983        -1.897576
 H         0.153960         1.918601        -0.778653
 H        -0.167912         0.787372        -1.938743
 H        -1.981890         1.342990         0.308767
 H        -2.271753         2.133387        -1.209030
