19
Iteration:   790
 C        -3.046252         0.285331        -2.802859
 C        -2.575735         0.003661        -1.313856
 C        -2.955368        -1.296243        -0.570432
 C        -1.663962        -1.380095        -1.150401
 O        -0.552279        -1.177629        -0.244652
 C         0.048776         0.052216        -0.060917
 O         0.661828         0.388011         0.908166
 C        -0.425023         1.210917        -0.919066
 C        -1.931957         1.198282        -0.667583
 H        -3.022165        -0.601660        -3.592630
 H        -4.044645         0.801858        -2.748272
 H        -2.402970         0.973665        -3.335220
 H        -3.023919        -1.321573         0.449712
 H        -3.759040        -1.839585        -0.955891
 H        -1.536303        -2.026615        -2.100033
 H         0.132202         2.056087        -0.563298
 H        -0.271215         0.943723        -2.044413
 H        -2.201947         1.183278         0.348893
 H        -2.265939         2.166439        -1.083549
