19
Iteration:  2361charge 0 multiplicity 1
 C        -2.733307        -0.129511        -2.961621
 C        -2.405744        -0.021480        -1.500138
 C        -3.153993        -0.853565        -0.483756
 C        -1.785427        -1.263051        -0.843755
 O        -0.571560        -1.158375        -0.110506
 C        -0.044886         0.003899         0.040716
 O         1.157583         0.236581        -0.025398
 C        -1.051381         1.161494         0.230997
 C        -1.916690         1.361395        -1.092933
 H        -2.650834        -1.184218        -3.327743
 H        -3.668051         0.335797        -3.200295
 H        -2.020008         0.385778        -3.653829
 H        -3.449804        -0.393197         0.436086
 H        -3.955648        -1.412491        -0.949183
 H        -1.504387        -2.082796        -1.584640
 H        -1.680735         0.770280         1.007043
 H        -0.379952         2.010988         0.779558
 H        -2.748571         1.999067        -0.931642
 H        -1.443795         1.798686        -1.932717
