19
Iteration:  2284charge 0 multiplicity 1
 C        -2.897769        -0.027037        -2.953074
 C        -2.398520        -0.104296        -1.517344
 C        -3.175698        -1.078447        -0.605613
 C        -1.656508        -1.256606        -0.949542
 O        -0.676815        -1.114351        -0.013461
 C         0.038987         0.157552         0.028299
 O         1.245342         0.095071         0.229306
 C        -0.878614         1.287129         0.036058
 C        -2.087652         1.375855        -1.096009
 H        -3.611413        -0.848986        -3.104950
 H        -3.491081         0.831604        -3.129843
 H        -2.175976         0.044396        -3.800906
 H        -3.354399        -0.721108         0.406025
 H        -3.721652        -1.928488        -1.035730
 H        -1.399421        -2.101813        -1.652282
 H        -1.151214         1.234423         1.120229
 H        -0.126780         2.294796         0.131698
 H        -2.765653         1.937617        -0.579740
 H        -1.851318         1.901226        -1.971955
