19
Iteration:  3946charge 0 multiplicity 1
 C        -3.103950         0.098892        -2.798573
 C        -2.517118        -0.042329        -1.438191
 C        -2.991844        -1.090567        -0.537457
 C        -1.668599        -1.244057        -1.164398
 O        -0.632341        -1.062470        -0.325525
 C         0.004535         0.080209         0.052331
 O         0.931299         0.090096         0.874394
 C        -0.483562         1.271761        -0.722656
 C        -2.038915         1.204590        -0.774408
 H        -2.831268        -0.828791        -3.364703
 H        -4.200351         0.303203        -3.025938
 H        -2.372767         0.776441        -3.241458
 H        -3.030318        -0.830472         0.508589
 H        -3.959605        -1.490936        -0.884268
 H        -1.279818        -1.903859        -1.951815
 H         0.085286         2.094356        -0.307815
 H        -0.132147         1.219961        -1.827326
 H        -2.426303         1.258368         0.220203
 H        -2.277012         2.202285        -1.142967
