19
Iteration:  2335charge 0 multiplicity 1
 C        -2.744472        -0.115591        -2.942184
 C        -2.398341        -0.058158        -1.518720
 C        -3.107802        -1.047617        -0.529260
 C        -1.759109        -1.251701        -1.000734
 O        -0.686700        -1.139782        -0.000303
 C        -0.040913         0.061300         0.038415
 O         1.164883         0.141503        -0.033860
 C        -1.009700         1.370337         0.190860
 C        -1.908809         1.317726        -0.979791
 H        -2.937866        -1.078728        -3.390968
 H        -3.531183         0.723159        -3.218314
 H        -1.928796         0.297738        -3.540278
 H        -3.227774        -0.477418         0.447452
 H        -4.035358        -1.566960        -0.884682
 H        -1.465578        -2.080065        -1.580766
 H        -1.387495         1.200674         1.189529
 H        -0.500848         2.252418         0.277899
 H        -2.803106         2.116730        -0.801747
 H        -1.429130         1.850476        -1.910346
