19
Iteration:  1003
 C        -2.794337        -0.081940        -3.006769
 C        -2.534875        -0.057489        -1.551720
 C        -3.151771        -1.046549        -0.609783
 C        -1.694015        -1.201179        -0.932424
 O        -0.592437        -1.143835         0.063507
 C         0.050274         0.093878        -0.020066
 O         1.224342         0.057227         0.235986
 C        -0.811757         1.358719        -0.151668
 C        -2.194372         1.381887        -0.884716
 H        -2.911002        -1.038116        -3.474077
 H        -3.650300         0.588933        -3.227155
 H        -1.874615         0.308686        -3.614817
 H        -3.308275        -0.721117         0.438752
 H        -3.850477        -1.848439        -0.918865
 H        -1.426711        -2.026581        -1.661043
 H        -1.235742         1.366384         0.865125
 H        -0.192391         2.283432        -0.359144
 H        -3.118768         1.559374        -0.214177
 H        -2.192019         2.129515        -1.589164
