19
Iteration:   191
 C        -2.943128        -0.132657        -2.994601
 C        -2.497624        -0.032747        -1.570513
 C        -3.139532        -0.875643        -0.417474
 C        -1.791149        -1.247767        -0.962719
 O        -0.491702        -1.155892        -0.306748
 C         0.039396         0.013657         0.066153
 O         1.189581         0.030370         0.463627
 C        -0.843264         1.357390        -0.013156
 C        -2.050057         1.371153        -1.067016
 H        -2.898841        -1.182927        -3.458822
 H        -3.919336         0.333338        -3.038102
 H        -2.309807         0.578953        -3.650144
 H        -3.030300        -0.501998         0.722089
 H        -4.099614        -1.526329        -0.599231
 H        -1.745236        -2.175712        -1.572061
 H        -1.019551         1.758133         1.001332
 H        -0.055499         2.096929        -0.520769
 H        -2.977917         1.861715        -0.715509
 H        -1.625280         1.905464        -2.016827
