19
Iteration:  2242charge 0 multiplicity 1
 C        -2.965924        -0.154269        -2.914119
 C        -2.482162        -0.045581        -1.532496
 C        -3.103818        -0.934809        -0.427709
 C        -1.748813        -1.204075        -1.072055
 O        -0.488006        -1.139273        -0.339651
 C        -0.000300         0.039563         0.081505
 O         1.148940         0.126488         0.495272
 C        -0.897790         1.286980        -0.030461
 C        -1.971724         1.368447        -1.088966
 H        -3.110408        -1.215839        -3.290172
 H        -3.840043         0.429947        -2.981686
 H        -2.272362         0.418704        -3.603801
 H        -2.965283        -0.718615         0.607124
 H        -3.830785        -1.735672        -0.539548
 H        -1.724088        -2.188994        -1.627263
 H        -1.413841         1.428770         1.008371
 H        -0.195047         2.228936        -0.139239
 H        -2.893447         2.004185        -0.956600
 H        -1.502978         1.864038        -2.007647
