19
Iteration:   972charge 0 multiplicity 1
 C        -2.637464        -0.078656        -3.018691
 C        -2.457340        -0.095910        -1.501764
 C        -3.213204        -1.040744        -0.519772
 C        -1.818015        -1.317432        -0.977168
 O        -0.670833        -1.135179        -0.099816
 C        -0.007961         0.081830         0.024375
 O         1.213036         0.142086         0.185698
 C        -0.808027         1.424247        -0.106474
 C        -2.163304         1.326096        -0.806521
 H        -2.538344        -0.997975        -3.458334
 H        -3.631992         0.297380        -3.138806
 H        -1.823588         0.631307        -3.347594
 H        -3.183441        -0.709261         0.504172
 H        -3.961488        -1.736993        -0.786654
 H        -1.592165        -2.299849        -1.586463
 H        -0.936180         1.793702         0.935499
 H         0.040212         2.259347        -0.617947
 H        -3.084483         1.624147        -0.315101
 H        -1.929275         2.018221        -1.545125
