19
Iteration:  4641
 C        -3.212530        -0.052470        -2.815998
 C        -2.397744        -0.046879        -1.542422
 C        -3.043437        -0.879837        -0.429442
 C        -1.704651        -1.230098        -1.061080
 O        -0.503450        -1.190429        -0.320591
 C         0.029734         0.036318         0.033021
 O         1.053255        -0.020838         0.648723
 C        -0.887130         1.361606        -0.077986
 C        -1.771011         1.396019        -1.319073
 H        -3.310395        -1.070727        -3.186173
 H        -4.204723         0.313376        -2.559266
 H        -2.685207         0.627374        -3.558744
 H        -3.078316        -0.667184         0.621532
 H        -3.830627        -1.614859        -0.627577
 H        -1.426898        -2.056249        -1.723647
 H        -1.516309         1.232129         0.766011
 H        -0.196765         2.181508         0.003346
 H        -2.613979         2.128726        -1.074527
 H        -1.310784         1.870282        -2.204808
