19
Iteration:  4242charge 0 multiplicity 1
 C        -3.296120        -0.084030        -2.843478
 C        -2.461909        -0.074224        -1.510324
 C        -2.957410        -0.980947        -0.419513
 C        -1.680542        -1.228028        -1.104539
 O        -0.419495        -1.064460        -0.512927
 C         0.055636         0.115787         0.167329
 O         0.972982        -0.167452         0.856484
 C        -0.702911         1.449150        -0.265587
 C        -1.910440         1.372397        -1.206483
 H        -4.018563        -0.928013        -3.100914
 H        -3.986677         0.771300        -2.716952
 H        -2.657809        -0.043309        -3.691766
 H        -3.074517        -0.574747         0.568741
 H        -3.791962        -1.631371        -0.693354
 H        -1.562227        -2.092333        -1.788787
 H        -1.027453         1.826039         0.746625
 H        -0.073223         2.355552        -0.626242
 H        -2.670802         1.958361        -0.705747
 H        -1.763301         1.804036        -2.142363
