19
Iteration:  1807charge 0 multiplicity 1
 C        -2.990144         0.047696        -2.955531
 C        -2.488997        -0.081476        -1.500491
 C        -3.106778        -1.194847        -0.673778
 C        -1.608456        -1.280572        -1.064442
 O        -0.681516        -1.010398         0.037069
 C         0.059044         0.098447         0.047010
 O         1.206387         0.176832         0.507218
 C        -0.678213         1.321481        -0.403862
 C        -2.174479         1.183133        -0.869679
 H        -3.642679        -0.793364        -3.405021
 H        -3.619340         0.996785        -3.100657
 H        -2.063817         0.059087        -3.581640
 H        -3.158627        -0.975562         0.468676
 H        -3.839614        -1.935451        -1.105892
 H        -1.208212        -2.030034        -1.762093
 H        -0.764831         1.968821         0.481901
 H        -0.123690         1.991807        -0.870302
 H        -2.878248         1.447953        -0.056510
 H        -2.464210         2.067320        -1.567338
