19
Iteration:  3059
 C        -3.500214        -0.162690        -2.693645
 C        -2.467203        -0.030002        -1.577615
 C        -2.633046        -0.857536        -0.229153
 C        -1.613600        -1.247520        -1.221051
 O        -0.233192        -0.941152        -0.828705
 C        -0.110662         0.060118         0.191895
 O         0.540828        -0.085938         1.202436
 C        -0.664646         1.327897        -0.332898
 C        -1.770425         1.271569        -1.385607
 H        -3.567395        -1.138058        -3.217889
 H        -4.478882        -0.006546        -2.244715
 H        -3.215413         0.579390        -3.496276
 H        -2.124341        -0.443699         0.680477
 H        -3.466891        -1.475548         0.044113
 H        -1.684032        -2.075773        -1.824332
 H        -0.995541         1.858661         0.559477
 H         0.228774         1.876950        -0.723003
 H        -2.447527         2.063016        -1.272975
 H        -1.283335         1.437663        -2.354334
