19
Iteration:   250charge 0 multiplicity 1
 C        -3.330031        -0.081759        -2.796580
 C        -2.463017         0.001630        -1.579646
 C        -2.831446        -0.868244        -0.340931
 C        -1.684562        -1.203530        -1.157564
 O        -0.394992        -1.148499        -0.500053
 C        -0.050936         0.022382         0.166193
 O         1.016966         0.065559         0.752393
 C        -0.953054         1.264683        -0.076940
 C        -1.738507         1.300035        -1.345865
 H        -3.960115        -0.953664        -2.744360
 H        -4.136675         0.751586        -2.779346
 H        -2.779010        -0.116114        -3.757483
 H        -2.615081        -0.450205         0.560869
 H        -3.678885        -1.439648        -0.403034
 H        -1.652556        -2.133743        -1.719409
 H        -1.782400         1.208260         0.844254
 H        -0.351704         2.138049         0.227360
 H        -2.484835         2.121414        -1.296660
 H        -1.106340         1.562442        -2.245882
