19
Iteration:  4633charge 0 multiplicity 1
 C        -3.183730        -0.032456        -2.867391
 C        -2.448566         0.003466        -1.555702
 C        -3.032588        -0.929779        -0.471232
 C        -1.756593        -1.253510        -1.034605
 O        -0.519289        -1.139879        -0.291624
 C         0.005072        -0.007000         0.126132
 O         1.158203         0.034994         0.596441
 C        -0.849240         1.280390        -0.074547
 C        -1.836421         1.404199        -1.280302
 H        -3.344820        -1.088061        -3.182369
 H        -4.202492         0.362488        -2.727332
 H        -2.687512         0.400071        -3.702656
 H        -2.953620        -0.663473         0.590529
 H        -3.861335        -1.547437        -0.839046
 H        -1.725381        -2.147064        -1.621748
 H        -1.536839         1.313749         0.863726
 H        -0.100981         2.178304         0.047342
 H        -2.576017         2.221594        -1.171605
 H        -1.225603         1.647757        -2.089986
