19
Iteration:  2042
 C        -3.210290        -0.071068        -2.891804
 C        -2.475246        -0.029747        -1.464594
 C        -2.888759        -0.998921        -0.341857
 C        -1.644654        -1.249086        -1.122256
 O        -0.326771        -1.109524        -0.530671
 C        -0.026840         0.044422         0.121342
 O         0.835112         0.056735         0.992036
 C        -0.655700         1.331231        -0.430336
 C        -2.045996         1.364061        -1.176627
 H        -3.488142        -1.128859        -3.164884
 H        -4.245416         0.312858        -2.679801
 H        -2.674030         0.426468        -3.816294
 H        -2.533682        -0.867272         0.674813
 H        -3.762965        -1.669696        -0.518143
 H        -1.719535        -2.092218        -1.868970
 H        -0.592282         2.090900         0.355360
 H         0.000143         1.806533        -1.022659
 H        -2.766143         1.748575        -0.410007
 H        -2.201900         2.110458        -2.098105
