19
Iteration:  1255charge 0 multiplicity 1
 C        -3.168902        -0.142689        -2.842783
 C        -2.542279        -0.035226        -1.503117
 C        -2.954065        -0.999358        -0.477249
 C        -1.647881        -1.301163        -1.097832
 O        -0.354708        -1.076981        -0.498801
 C        -0.014066         0.099221         0.113452
 O         0.887932        -0.008682         0.939642
 C        -0.572531         1.436866        -0.469339
 C        -2.096233         1.355751        -0.961579
 H        -3.033788        -1.037524        -3.348090
 H        -4.226253         0.145303        -2.940685
 H        -2.625982         0.489380        -3.636499
 H        -3.002889        -0.751146         0.550454
 H        -3.772871        -1.622228        -0.736577
 H        -1.522576        -2.103729        -1.766182
 H        -0.522005         2.372086         0.241227
 H        -0.016106         1.815409        -1.298015
 H        -2.821152         1.675593        -0.200864
 H        -2.257692         2.008185        -1.894214
