19
Iteration:  4233
 C        -3.287356        -0.106159        -2.826667
 C        -2.415590        -0.052691        -1.531719
 C        -3.082237        -0.933309        -0.461698
 C        -1.675436        -1.303405        -1.115598
 O        -0.414412        -1.107202        -0.475808
 C         0.084170         0.064860         0.011479
 O         1.000610        -0.115013         0.863818
 C        -0.739810         1.536219        -0.197109
 C        -1.894441         1.399644        -1.147774
 H        -3.984312        -0.952977        -2.797926
 H        -3.830976         0.799292        -2.933135
 H        -2.716402        -0.103859        -3.711516
 H        -3.039666        -0.675566         0.592590
 H        -3.776466        -1.703521        -0.732634
 H        -1.581333        -2.248882        -1.740612
 H        -1.056933         1.791499         0.888107
 H        -0.008285         2.239262        -0.531218
 H        -2.892014         1.882079        -0.795483
 H        -1.580123         1.846527        -2.063929
