19
Iteration:  2063
 C        -3.206564        -0.202583        -2.791021
 C        -2.552102        -0.056510        -1.500044
 C        -2.811983        -0.922544        -0.284736
 C        -1.618699        -1.155876        -1.196435
 O        -0.342730        -1.107528        -0.615487
 C        -0.052012         0.049289         0.065261
 O         0.725778        -0.001396         0.971826
 C        -0.629874         1.349175        -0.337870
 C        -2.012911         1.378651        -1.110234
 H        -3.050814        -1.182415        -3.203738
 H        -4.258061        -0.036859        -3.039438
 H        -2.542925         0.312425        -3.486178
 H        -2.640223        -0.261747         0.548820
 H        -3.596073        -1.703803        -0.292442
 H        -1.627414        -1.960735        -2.005366
 H        -0.522059         2.110715         0.456394
 H         0.023628         1.817355        -0.995281
 H        -2.748480         1.963328        -0.571904
 H        -1.787461         1.990106        -2.092424
