19
Iteration:    43
 C        -2.891814        -0.220384        -2.949981
 C        -2.467515        -0.070423        -1.553391
 C        -3.224428        -0.660705        -0.380848
 C        -1.878171        -1.277331        -0.967686
 O        -0.538208        -1.067900        -0.404552
 C         0.020239         0.090418         0.130874
 O         1.239893         0.192927         0.313899
 C        -0.987446         1.131336         0.184007
 C        -1.770113         1.193289        -1.151903
 H        -3.083408        -1.287381        -3.203468
 H        -3.902396         0.287560        -3.263768
 H        -2.122539         0.298342        -3.636430
 H        -3.150173        -0.229925         0.611929
 H        -4.089456        -1.300601        -0.508988
 H        -1.944903        -2.223528        -1.488468
 H        -1.516809         0.954025         1.013830
 H        -0.533502         2.115048         0.435883
 H        -2.554711         2.115956        -1.133764
 H        -1.155042         1.624829        -1.967745
