19
Iteration:  4716charge 0 multiplicity 1
 C        -3.442552        -0.120090        -2.645688
 C        -2.421133        -0.075656        -1.574123
 C        -2.813527        -0.813332        -0.289745
 C        -1.674432        -1.220368        -1.165282
 O        -0.297726        -0.973050        -0.776597
 C         0.051219         0.156423         0.134945
 O         0.678101        -0.202863         1.071631
 C        -0.794594         1.334404        -0.180149
 C        -1.672562         1.265931        -1.463369
 H        -3.911053        -1.099785        -2.613928
 H        -4.137061         0.715836        -2.450749
 H        -2.865127         0.137503        -3.618941
 H        -2.606744        -0.293777         0.633765
 H        -3.757891        -1.395494        -0.303856
 H        -1.790855        -2.158253        -1.705558
 H        -1.380355         1.463970         0.717198
 H        -0.173512         2.177409        -0.241963
 H        -2.399976         2.067052        -1.267730
 H        -1.073878         1.452091        -2.519054
