19
Iteration:   472
 C        -3.147500        -0.161524        -2.935778
 C        -2.558007        -0.045157        -1.585419
 C        -3.062455        -0.975169        -0.485846
 C        -1.720125        -1.211938        -1.172468
 O        -0.577908        -1.094463        -0.199375
 C         0.080372         0.107553         0.065973
 O         1.182197         0.032313         0.552249
 C        -0.788648         1.348393        -0.008923
 C        -1.882804         1.340835        -1.099927
 H        -3.662778        -1.215282        -2.962218
 H        -3.888812         0.648911        -3.217435
 H        -2.412639         0.050294        -3.749260
 H        -2.986160        -0.544027         0.536019
 H        -3.993815        -1.643341        -0.651428
 H        -1.616352        -2.125276        -1.605695
 H        -1.165719         1.446745         0.930246
 H        -0.176313         2.231302        -0.169960
 H        -2.698887         2.170084        -0.948608
 H        -1.336332         1.722733        -1.986144
