19
Iteration:  4775
 C        -3.553031        -0.056379        -2.718158
 C        -2.475547         0.000307        -1.596283
 C        -2.838316        -0.890410        -0.318538
 C        -1.625919        -1.216964        -1.175315
 O        -0.277411        -1.020871        -0.643646
 C         0.032750         0.067397         0.172935
 O         0.741437        -0.089917         1.102682
 C        -0.707785         1.299610        -0.253673
 C        -1.691488         1.298018        -1.465556
 H        -4.338709        -0.838611        -2.564417
 H        -4.118705         0.893442        -2.792967
 H        -3.136121        -0.292232        -3.677270
 H        -2.488286        -0.849235         0.719876
 H        -3.596462        -1.665794        -0.455749
 H        -1.554872        -2.068737        -1.907531
 H        -1.289655         1.378362         0.656578
 H         0.018132         2.129768        -0.064167
 H        -2.490173         2.150590        -1.300497
 H        -1.336056         1.501869        -2.548175
