19
Iteration:   271
 C        -3.473662        -0.027814        -2.685279
 C        -2.382534        -0.069259        -1.597880
 C        -2.832672        -0.844622        -0.340005
 C        -1.559914        -1.304203        -1.208159
 O        -0.347345        -1.116868        -0.570226
 C        -0.124680         0.041672         0.168748
 O         0.908777         0.102048         0.798038
 C        -1.010812         1.257178        -0.022538
 C        -1.623653         1.244043        -1.392049
 H        -4.282326        -0.700243        -2.524899
 H        -4.067153         0.992316        -2.673063
 H        -3.031402        -0.097219        -3.725090
 H        -2.713369        -0.466779         0.602616
 H        -3.718477        -1.325030        -0.544036
 H        -1.458708        -2.227192        -1.790658
 H        -1.635791         1.463068         0.915873
 H        -0.248539         2.090005        -0.016028
 H        -2.172039         2.173771        -1.631258
 H        -0.778654         1.351230        -2.183301
