19
Iteration:  1606charge 0 multiplicity 1
 C        -3.005979         0.081706        -2.870545
 C        -2.509266        -0.061814        -1.461154
 C        -2.983621        -1.171497        -0.475846
 C        -1.653878        -1.243866        -1.169982
 O        -0.475633        -1.199386        -0.353327
 C         0.024934         0.072492         0.035764
 O         0.838457         0.273725         0.946172
 C        -0.588029         1.317010        -0.778515
 C        -2.096585         1.243071        -0.769210
 H        -3.162419        -0.908672        -3.412252
 H        -3.913010         0.716236        -2.806252
 H        -2.162788         0.624950        -3.467851
 H        -3.005699        -0.927211         0.604004
 H        -3.842228        -1.814964        -0.608400
 H        -1.629010        -2.099084        -1.829067
 H        -0.189451         2.108417        -0.080946
 H        -0.194659         1.415786        -1.819079
 H        -2.657243         1.316416         0.289639
 H        -2.527003         2.120481        -1.320643
