19
Iteration:  2154
 C        -3.418601        -0.019517        -2.623392
 C        -2.351268        -0.047576        -1.509279
 C        -2.822247        -1.014748        -0.357976
 C        -1.615315        -1.269845        -1.270959
 O        -0.330688        -1.036975        -0.602218
 C        -0.069483         0.132251         0.144757
 O         0.843213         0.061960         0.957855
 C        -0.945754         1.323566        -0.185416
 C        -1.706259         1.245195        -1.422175
 H        -4.109513        -0.914145        -2.751270
 H        -4.014419         0.846051        -2.414420
 H        -2.945039        -0.010683        -3.670578
 H        -2.511464        -0.903736         0.720170
 H        -3.682729        -1.634354        -0.520215
 H        -1.538093        -2.140625        -1.884573
 H        -1.603810         1.101850         0.691035
 H        -0.499757         2.262641        -0.094055
 H        -2.390420         2.159378        -1.573730
 H        -0.976255         1.232132        -2.346263
