19
Iteration:  1042charge 0 multiplicity 1
 C        -2.968244        -0.044781        -2.939834
 C        -2.462868        -0.091022        -1.467178
 C        -3.111169        -1.134916        -0.633382
 C        -1.654414        -1.255638        -1.104404
 O        -0.665759        -1.045625        -0.016192
 C        -0.035649         0.162729         0.085700
 O         1.137167         0.086072         0.304840
 C        -0.734281         1.423358        -0.096112
 C        -1.994398         1.234214        -0.988565
 H        -3.539747        -1.034443        -3.273641
 H        -3.668668         0.796881        -2.836985
 H        -2.127611         0.082178        -3.550314
 H        -3.200319        -0.915903         0.437013
 H        -3.870445        -1.884697        -1.108618
 H        -1.389754        -2.081831        -1.655839
 H        -1.008415         1.599072         0.998120
 H         0.005613         2.262983        -0.376900
 H        -2.663398         1.757780        -0.358573
 H        -1.773627         1.830997        -2.016027
