19
Iteration:  1494
 C        -3.035053         0.040373        -2.969591
 C        -2.536941        -0.116003        -1.481055
 C        -2.995702        -1.259933        -0.547032
 C        -1.606415        -1.320703        -1.043935
 O        -0.665484        -1.073812        -0.095640
 C         0.044543         0.107090         0.079018
 O         1.154165         0.143383         0.537632
 C        -0.724070         1.383515        -0.291360
 C        -2.120376         1.335465        -0.992340
 H        -3.591636        -0.808934        -3.411509
 H        -3.696876         0.971333        -3.176820
 H        -2.129965         0.257917        -3.709745
 H        -3.233392        -0.902674         0.489601
 H        -3.728101        -1.755852        -1.227366
 H        -1.241395        -2.018316        -1.808443
 H        -0.691113         1.836893         0.816769
 H        -0.139443         2.146661        -0.919088
 H        -2.880840         1.655739        -0.160479
 H        -2.022986         2.047204        -1.847110
