19
Iteration:   660
 C        -3.009140        -0.110069        -2.961679
 C        -2.582045        -0.063298        -1.491101
 C        -3.082113        -0.923304        -0.444105
 C        -1.749662        -1.208105        -1.050296
 O        -0.497054        -1.116201        -0.383445
 C         0.058523         0.054536         0.019479
 O         1.035294         0.099545         0.723283
 C        -0.634844         1.269357        -0.295296
 C        -2.054071         1.285634        -0.955132
 H        -3.125541        -1.136710        -3.380230
 H        -3.915545         0.468716        -3.107818
 H        -2.452945         0.621066        -3.441344
 H        -3.087677        -0.564972         0.516451
 H        -3.866484        -1.602242        -0.525931
 H        -1.738677        -2.136813        -1.792681
 H        -0.541503         1.822346         0.614284
 H         0.186544         1.837722        -0.981677
 H        -2.795062         1.918801        -0.318540
 H        -1.860133         1.962722        -1.727466
