19
Iteration:  1510charge 0 multiplicity 1
 C        -3.090933         0.023713        -2.930579
 C        -2.474464        -0.084798        -1.544014
 C        -2.995804        -1.151835        -0.625107
 C        -1.588720        -1.226207        -1.125982
 O        -0.569522        -1.090795        -0.011181
 C         0.005038         0.137102         0.107873
 O         1.148285         0.051971         0.552335
 C        -0.770000         1.390192        -0.303796
 C        -2.149330         1.288365        -0.995350
 H        -3.489768        -0.933722        -3.299913
 H        -3.842040         0.742447        -2.811398
 H        -2.342318         0.318090        -3.606103
 H        -3.017614        -1.029443         0.445624
 H        -3.782433        -1.870046        -0.807119
 H        -1.236819        -2.024772        -1.773190
 H        -0.934887         2.032717         0.555996
 H         0.019554         1.906331        -0.897282
 H        -2.926928         1.642398        -0.422832
 H        -2.157593         1.903191        -1.878428
