19
Iteration:  3550
 C        -3.169154        -0.016570        -2.960939
 C        -2.517156        -0.048372        -1.580126
 C        -3.060129        -0.977006        -0.427066
 C        -1.727850        -1.213166        -1.131276
 O        -0.457799        -1.131702        -0.449386
 C         0.038930         0.064790         0.134423
 O         0.988822        -0.002653         0.885797
 C        -0.533961         1.332492        -0.386006
 C        -2.041737         1.327642        -0.915275
 H        -3.448185        -1.001333        -3.252145
 H        -4.126531         0.525860        -2.815875
 H        -2.565818         0.390535        -3.710997
 H        -2.910812        -0.539770         0.567157
 H        -3.895567        -1.734901        -0.608878
 H        -1.598841        -1.975204        -1.885193
 H        -0.175698         2.288725         0.135005
 H         0.037711         1.343858        -1.300574
 H        -2.766524         1.582918        -0.135373
 H        -2.136175         2.211375        -1.620783
