19
Iteration:   356charge 0 multiplicity 1
 C        -3.256824        -0.246931        -2.756002
 C        -2.425794         0.021603        -1.581812
 C        -2.830804        -0.782010        -0.347679
 C        -1.677296        -1.203677        -1.135001
 O        -0.392759        -1.102845        -0.615541
 C        -0.023210         0.043545         0.060318
 O         0.805496        -0.042423         0.923911
 C        -0.720384         1.307834        -0.248110
 C        -1.908736         1.368983        -1.218124
 H        -3.173745        -1.292304        -2.864488
 H        -4.275265        -0.013844        -2.537865
 H        -3.043553         0.309458        -3.699694
 H        -2.495278        -0.349590         0.556126
 H        -3.765750        -1.396734        -0.319443
 H        -1.698732        -2.038015        -1.844023
 H        -1.100453         1.536076         0.892208
 H         0.163303         2.109194        -0.452887
 H        -2.639382         1.940047        -0.678512
 H        -1.682014         1.989887        -2.121559
