19
Iteration:  3385
 C        -2.941658         0.058532        -2.910264
 C        -2.530103         0.019485        -1.470880
 C        -3.113758        -1.137190        -0.560062
 C        -1.692947        -1.220830        -1.086320
 O        -0.564807        -1.176498        -0.279000
 C        -0.013271         0.047449         0.080338
 O         1.051741         0.080906         0.732752
 C        -0.633391         1.341809        -0.523373
 C        -2.067189         1.355612        -0.768966
 H        -2.975652        -0.953887        -3.350361
 H        -4.023492         0.391630        -2.914558
 H        -2.335307         0.653838        -3.552471
 H        -3.135364        -0.961705         0.574044
 H        -3.851919        -1.814955        -0.998262
 H        -1.530777        -1.899648        -1.981710
 H        -0.169354         2.233089        -0.167359
 H        -0.161940         1.271892        -1.538981
 H        -2.556665         1.359209         0.126428
 H        -2.369453         2.256204        -1.418279
