19
Iteration:   383charge 0 multiplicity 1
 C        -3.275837        -0.198354        -2.913050
 C        -2.577759         0.018796        -1.539570
 C        -2.925109        -0.900943        -0.362119
 C        -1.652451        -1.167770        -1.084437
 O        -0.328481        -1.155067        -0.508593
 C         0.014253         0.014674         0.150940
 O         0.981947        -0.047092         0.893079
 C        -0.698738         1.370630        -0.240039
 C        -2.016090         1.397456        -1.212103
 H        -3.406423        -1.333767        -3.008919
 H        -4.361872         0.209699        -2.975996
 H        -2.736739         0.399880        -3.631853
 H        -2.842728        -0.362237         0.628993
 H        -3.888410        -1.390225        -0.606009
 H        -1.680692        -1.944689        -1.855184
 H        -0.772813         1.868372         0.626054
 H         0.103116         1.805155        -0.758667
 H        -2.734614         2.214807        -0.841114
 H        -1.770916         1.930629        -2.165852
