19
Iteration:  3590charge 0 multiplicity 1
 C        -3.134113         0.009375        -2.894998
 C        -2.416642        -0.012738        -1.498419
 C        -3.073468        -1.087143        -0.486895
 C        -1.699253        -1.250349        -1.076411
 O        -0.522732        -1.232282        -0.215681
 C         0.035095         0.020875        -0.014927
 O         1.051666         0.022643         0.651569
 C        -0.720143         1.412341        -0.221267
 C        -1.967059         1.465813        -1.072698
 H        -3.695375        -0.915080        -3.292805
 H        -3.850294         0.915700        -2.811335
 H        -2.333028         0.218733        -3.707569
 H        -3.023388        -0.684881         0.493529
 H        -3.940095        -1.706539        -0.802698
 H        -1.616279        -2.071080        -1.846785
 H        -0.861580         1.712083         0.773214
 H         0.088122         2.104720        -0.742441
 H        -2.987567         1.865055        -0.581906
 H        -1.756542         1.795417        -2.108282
