19
Iteration:  1769
 C        -2.853787        -0.047058        -2.901095
 C        -2.461698        -0.068348        -1.459543
 C        -3.129439        -1.117795        -0.553036
 C        -1.706556        -1.208164        -1.004837
 O        -0.480660        -1.118127        -0.259323
 C        -0.061358         0.123426         0.100952
 O         1.088441         0.129394         0.558373
 C        -0.735302         1.386023        -0.420055
 C        -2.188891         1.259740        -0.851463
 H        -2.944049        -1.045750        -3.310268
 H        -3.681722         0.599023        -3.152137
 H        -2.003382         0.432157        -3.462351
 H        -3.217291        -0.788311         0.403684
 H        -3.939084        -1.723361        -0.862964
 H        -1.500357        -1.957561        -1.778571
 H        -0.621020         1.988323         0.488423
 H        -0.015643         1.611854        -1.385213
 H        -2.938017         1.306588         0.034900
 H        -2.443191         2.049532        -1.534158
