19
Iteration:  1832
 C        -3.017224        -0.041015        -2.975712
 C        -2.421608        -0.031038        -1.540086
 C        -3.012833        -1.288367        -0.722899
 C        -1.602909        -1.205314        -1.018264
 O        -0.743337        -0.985026         0.075382
 C         0.014197         0.148672         0.066601
 O         1.156756         0.028875         0.447772
 C        -0.647970         1.462001        -0.382873
 C        -2.173450         1.243445        -0.766774
 H        -3.452138        -0.940027        -3.286357
 H        -3.797332         0.725064        -3.098813
 H        -2.188911         0.135619        -3.717061
 H        -3.355019        -1.039790         0.257246
 H        -3.566991        -2.055481        -1.274947
 H        -1.221347        -1.975010        -1.658407
 H        -0.409848         2.383712         0.150758
 H        -0.130917         1.761672        -1.305040
 H        -2.821604         1.293293         0.069355
 H        -2.554169         2.136213        -1.262567
