19
Iteration:  4697charge 0 multiplicity 1
 C        -3.512540        -0.101670        -2.842930
 C        -2.597474         0.017592        -1.603258
 C        -2.841170        -0.804415        -0.256090
 C        -1.607679        -1.163702        -1.135570
 O        -0.234163        -1.014312        -0.697825
 C         0.004677        -0.027473         0.173493
 O         0.817940        -0.118040         1.053465
 C        -0.775589         1.322155        -0.186129
 C        -1.725898         1.248815        -1.362114
 H        -3.662504        -1.184415        -3.049088
 H        -4.439577         0.442718        -2.633925
 H        -3.070329         0.390419        -3.722154
 H        -2.814965        -0.268250         0.714446
 H        -3.687820        -1.480099        -0.385974
 H        -1.540050        -2.097025        -1.597775
 H        -1.202611         1.586156         0.752584
 H         0.003634         2.112100        -0.295895
 H        -2.361578         2.200032        -1.502203
 H        -1.116394         1.102562        -2.265045
