19
Iteration:  1270
 C        -3.111870        -0.088963        -2.984577
 C        -2.533792        -0.034486        -1.492816
 C        -2.966850        -1.061556        -0.370931
 C        -1.614156        -1.172391        -1.123713
 O        -0.412964        -1.085469        -0.435827
 C         0.077676         0.122706         0.038916
 O         0.851803         0.016180         0.943731
 C        -0.638176         1.356536        -0.557637
 C        -2.113214         1.320815        -0.895458
 H        -3.095347        -1.207902        -3.321061
 H        -4.201474         0.093065        -3.003412
 H        -2.567787         0.651215        -3.532982
 H        -2.885919        -0.541114         0.671353
 H        -3.765367        -1.856514        -0.578581
 H        -1.577495        -2.014997        -1.846658
 H        -0.365133         2.016106         0.145227
 H        -0.010637         1.452361        -1.410783
 H        -2.706726         1.570935         0.096100
 H        -2.266101         2.219603        -1.552341
