19
Iteration:  1507
 C        -3.093016         0.012272        -2.936778
 C        -2.482398        -0.074604        -1.537141
 C        -2.987174        -1.168285        -0.613563
 C        -1.585003        -1.249051        -1.129582
 O        -0.561337        -1.075278        -0.002991
 C        -0.007331         0.137170         0.105719
 O         1.155308         0.049142         0.549033
 C        -0.772271         1.384243        -0.321132
 C        -2.149715         1.286389        -0.985915
 H        -3.555539        -0.876668        -3.376969
 H        -3.839895         0.828840        -2.846233
 H        -2.215393         0.360641        -3.606786
 H        -3.031334        -1.006370         0.502814
 H        -3.879319        -1.870141        -0.891744
 H        -1.262929        -2.067424        -1.794080
 H        -1.003000         2.049418         0.651133
 H         0.109340         1.934003        -0.909222
 H        -2.971013         1.749800        -0.431352
 H        -2.151890         1.960383        -1.852667
