19
Iteration:  3049
 C        -3.493337        -0.143869        -2.649356
 C        -2.459544        -0.118457        -1.550821
 C        -2.552405        -0.870600        -0.187651
 C        -1.537742        -1.167615        -1.199256
 O        -0.252965        -1.003699        -0.833673
 C        -0.132936         0.024333         0.142509
 O         0.494001        -0.114243         1.174983
 C        -0.756172         1.366495        -0.280966
 C        -1.751179         1.320407        -1.456641
 H        -3.528319        -1.161439        -3.083198
 H        -4.480171         0.205878        -2.379463
 H        -3.338683         0.694940        -3.471263
 H        -2.289575        -0.174783         0.680649
 H        -3.321876        -1.611042        -0.099168
 H        -1.648861        -2.034268        -1.754333
 H        -0.997216         2.236988         0.367836
 H         0.199551         1.740835        -0.630417
 H        -2.288362         2.087593        -1.339822
 H        -1.195266         1.551239        -2.410848
