19
Iteration:  1113charge 0 multiplicity 1
 C        -3.152450        -0.175452        -2.906800
 C        -2.447365        -0.059269        -1.579821
 C        -3.067260        -0.822468        -0.361725
 C        -1.700452        -1.267784        -1.057739
 O        -0.380802        -1.054279        -0.544577
 C         0.011003         0.051036         0.075001
 O         1.089616         0.095326         0.651278
 C        -1.014022         1.279000         0.086904
 C        -1.802818         1.314032        -1.215585
 H        -3.353597        -1.201042        -3.111313
 H        -4.187876         0.206530        -2.690182
 H        -2.696181         0.271582        -3.903338
 H        -2.921154        -0.393573         0.596905
 H        -3.876295        -1.477377        -0.436355
 H        -1.709491        -2.320447        -1.528445
 H        -1.578234         1.370777         1.031619
 H        -0.384709         2.043098         0.228845
 H        -2.709836         2.083139        -1.203799
 H        -1.057154         1.521113        -2.030274
