19
Iteration:  4046
 C        -2.984155        -0.010273        -2.966211
 C        -2.481452        -0.050905        -1.434434
 C        -3.135476        -1.091869        -0.519479
 C        -1.695688        -1.198315        -1.050134
 O        -0.653699        -1.048461        -0.131417
 C         0.123615         0.095296        -0.019677
 O         1.243761        -0.063065         0.474934
 C        -0.759911         1.319589        -0.147853
 C        -2.148901         1.343133        -1.039649
 H        -3.678052        -0.853479        -3.169129
 H        -3.437353         0.949919        -3.226819
 H        -2.151111        -0.061357        -3.599915
 H        -3.112511        -0.712641         0.550068
 H        -4.051248        -1.561709        -0.960681
 H        -1.397166        -1.753441        -1.914661
 H        -1.029451         1.446466         0.901865
 H        -0.079651         2.216823        -0.460981
 H        -2.850116         1.871714        -0.428959
 H        -1.891967         1.939943        -1.902390
