19
Iteration:   327charge 0 multiplicity 1
 C        -3.408822        -0.086146        -2.740952
 C        -2.517671        -0.052782        -1.539798
 C        -2.844100        -0.865594        -0.306795
 C        -1.628011        -1.213856        -1.167437
 O        -0.286350        -1.101793        -0.654650
 C        -0.058586         0.074210         0.153287
 O         0.846972        -0.038915         0.958385
 C        -0.845748         1.383688        -0.155856
 C        -1.765895         1.292776        -1.406405
 H        -3.650540        -1.130949        -3.018583
 H        -4.321843         0.586503        -2.453298
 H        -2.950420         0.236738        -3.678612
 H        -2.576771        -0.560935         0.676357
 H        -3.409263        -1.718253        -0.243039
 H        -1.594693        -2.179199        -1.788797
 H        -1.250529         1.695599         0.741904
 H        -0.054170         2.063909        -0.373528
 H        -2.479787         2.144528        -1.299665
 H        -1.079816         1.310384        -2.303503
