19
Iteration:  3995
 C        -3.039281        -0.008483        -2.889978
 C        -2.518352        -0.010260        -1.498598
 C        -3.128617        -0.951189        -0.579994
 C        -1.745723        -1.234859        -1.135452
 O        -0.534088        -1.179195        -0.215716
 C         0.084194        -0.001047         0.067110
 O         1.139071         0.118570         0.636824
 C        -0.643662         1.282683        -0.311386
 C        -2.122774         1.305770        -0.919834
 H        -3.167620        -1.072924        -3.235018
 H        -4.065512         0.397773        -2.864024
 H        -2.331497         0.561836        -3.646285
 H        -3.148868        -0.691403         0.489729
 H        -3.905449        -1.627570        -0.916631
 H        -1.575949        -2.098500        -1.794846
 H        -0.575589         2.039787         0.502551
 H        -0.018940         1.602439        -1.037886
 H        -2.794743         1.762814        -0.169725
 H        -1.947044         2.086513        -1.690353
