19
Iteration:  1278
 C        -3.072988        -0.059781        -2.924668
 C        -2.531508        -0.037762        -1.540969
 C        -2.958504        -1.077541        -0.360907
 C        -1.658430        -1.103555        -1.152683
 O        -0.438645        -1.120579        -0.414241
 C         0.006298         0.093018         0.044715
 O         0.867538         0.088631         0.938279
 C        -0.555221         1.286386        -0.586189
 C        -2.131512         1.288072        -0.863102
 H        -2.969796        -1.009544        -3.437594
 H        -4.125556         0.233154        -2.990572
 H        -2.547437         0.535191        -3.740267
 H        -2.892701        -0.716958         0.717371
 H        -3.639789        -1.945270        -0.411100
 H        -1.597488        -1.855046        -1.860406
 H        -0.274263         2.208171         0.032562
 H        -0.025308         1.489024        -1.489470
 H        -2.755210         1.297095         0.079797
 H        -2.438908         2.195593        -1.518309
