19
Iteration:  3848charge 0 multiplicity 1
 C        -3.161892         0.159654        -2.781881
 C        -2.482360         0.048286        -1.427427
 C        -3.055846        -1.143372        -0.617928
 C        -1.632689        -1.182916        -1.125202
 O        -0.519721        -1.192357        -0.232473
 C         0.039990         0.080374        -0.016005
 O         0.810098         0.148712         0.921616
 C        -0.432815         1.214445        -0.841552
 C        -1.993668         1.220414        -0.725126
 H        -3.316835        -0.827004        -3.299761
 H        -4.201976         0.663633        -2.701339
 H        -2.452000         0.681497        -3.484308
 H        -3.320190        -0.917593         0.438532
 H        -3.727002        -1.829161        -1.111571
 H        -1.304094        -1.847255        -1.953751
 H         0.026966         2.124004        -0.481812
 H        -0.192670         1.112579        -1.830047
 H        -2.371529         1.257461         0.278987
 H        -2.384119         2.103015        -1.290583
