19
Iteration:  3070charge 0 multiplicity 1
 C        -3.500059        -0.170362        -2.680192
 C        -2.496080        -0.083751        -1.484787
 C        -2.764278        -0.847023        -0.286899
 C        -1.595103        -1.246193        -1.268228
 O        -0.204639        -0.949258        -0.756136
 C        -0.031628         0.025159         0.127781
 O         0.565119        -0.082038         1.175606
 C        -0.630439         1.386388        -0.294980
 C        -1.754344         1.277280        -1.415572
 H        -3.352791        -1.208581        -3.041992
 H        -4.546610         0.067180        -2.474512
 H        -3.364905         0.598346        -3.527581
 H        -2.466040        -0.467113         0.735196
 H        -3.725557        -1.354031        -0.292734
 H        -1.473025        -2.164034        -1.692302
 H        -0.967135         1.851271         0.631166
 H         0.164981         2.043774        -0.728433
 H        -2.573813         1.991569        -1.125649
 H        -1.423913         1.626783        -2.405623
