19
Iteration:  1558charge 0 multiplicity 1
 C        -3.046522        -0.128843        -2.945514
 C        -2.530406        -0.020948        -1.497944
 C        -3.082541        -1.101431        -0.530869
 C        -1.670335        -1.215785        -1.105954
 O        -0.515811        -1.141946        -0.295756
 C         0.085826         0.106579         0.057164
 O         1.047771         0.107440         0.774509
 C        -0.611196         1.450183        -0.391615
 C        -2.118024         1.287987        -0.907428
 H        -2.740801        -1.064404        -3.386704
 H        -4.162600         0.000185        -2.933729
 H        -2.573526         0.661954        -3.569587
 H        -3.395820        -0.770484         0.458667
 H        -3.858670        -1.848504        -0.822725
 H        -1.538584        -1.883658        -1.968450
 H        -0.615462         2.168159         0.386661
 H         0.055353         1.729832        -1.108566
 H        -2.877489         1.486467        -0.050230
 H        -2.344877         2.124689        -1.639052
