19
Iteration:  3295charge 0 multiplicity 1
 C        -2.696958        -0.041914        -2.918392
 C        -2.400053         0.008807        -1.413717
 C        -3.149225        -1.102609        -0.655425
 C        -1.655403        -1.333139        -0.956878
 O        -0.837746        -1.087852         0.079800
 C        -0.005597         0.082236        -0.064978
 O         1.193444         0.044275         0.016120
 C        -0.852939         1.322403         0.032815
 C        -2.060291         1.449987        -0.903102
 H        -3.240657        -0.958406        -3.415069
 H        -3.543167         0.686907        -3.085817
 H        -1.804260         0.013741        -3.556677
 H        -3.311694        -0.921715         0.379431
 H        -3.840116        -1.704972        -1.285308
 H        -1.226197        -2.038662        -1.661130
 H        -1.318231         1.285998         1.007043
 H        -0.171590         2.262076         0.005876
 H        -2.800691         1.928826        -0.263837
 H        -1.817958         2.098739        -1.954028
