19
Iteration:  3743
 C        -3.035595        -0.038593        -2.944085
 C        -2.440169         0.028169        -1.521606
 C        -3.081543        -0.987577        -0.514732
 C        -1.758839        -1.249070        -0.994065
 O        -0.596881        -1.171868        -0.184013
 C         0.030995         0.028401         0.064809
 O         1.203932         0.068279         0.368333
 C        -0.876117         1.284316         0.024000
 C        -1.911521         1.366626        -1.107853
 H        -3.688568        -0.930174        -2.935616
 H        -3.606429         0.876316        -3.200097
 H        -2.301051        -0.134036        -3.766567
 H        -3.230966        -0.771608         0.572937
 H        -3.927704        -1.434985        -1.017753
 H        -1.517730        -2.028169        -1.689883
 H        -1.373208         1.405790         0.977733
 H        -0.126501         2.209667        -0.067837
 H        -2.779663         1.986645        -0.744447
 H        -1.505846         1.871591        -2.004499
