19
Iteration:   745
 C        -3.292945         0.195942        -2.776971
 C        -2.536092        -0.042593        -1.450896
 C        -2.976725        -1.246719        -0.610691
 C        -1.575230        -1.265622        -1.187707
 O        -0.497971        -1.100329        -0.231629
 C         0.065175         0.140415         0.024538
 O         0.743632         0.170694         1.042031
 C        -0.404922         1.221008        -0.891785
 C        -1.965288         1.298830        -0.769362
 H        -3.563430        -0.873621        -3.163224
 H        -4.109883         0.961133        -2.729679
 H        -2.602548         0.293003        -3.621818
 H        -3.121052        -1.212967         0.426465
 H        -3.684077        -1.876396        -1.077317
 H        -1.267965        -2.097447        -1.902997
 H         0.115106         2.133337        -0.623330
 H        -0.149247         0.859703        -1.983955
 H        -2.238905         1.459121         0.218088
 H        -2.307880         2.205039        -1.380365
