19
Iteration:  3604charge 0 multiplicity 1
 C        -3.059942        -0.031435        -2.820256
 C        -2.414192        -0.048000        -1.498214
 C        -3.116917        -1.042976        -0.537526
 C        -1.729212        -1.335107        -1.089294
 O        -0.596202        -1.143618        -0.252432
 C        -0.000522         0.061440         0.034141
 O         1.078344         0.073063         0.540399
 C        -0.695151         1.368738        -0.144058
 C        -1.889025         1.393755        -1.109816
 H        -3.585327        -0.968385        -2.905830
 H        -3.880769         0.764130        -2.867944
 H        -2.456947         0.159620        -3.668055
 H        -3.265205        -0.877134         0.560584
 H        -4.036088        -1.485146        -0.965648
 H        -1.481109        -2.093239        -1.798745
 H        -1.143019         1.459596         0.898531
 H         0.044169         2.172197        -0.158302
 H        -2.682789         2.104172        -0.597332
 H        -1.587730         2.075583        -1.975010
