19
Iteration:  3949charge 0 multiplicity 1
 C        -3.094090         0.091894        -2.818923
 C        -2.515938        -0.045320        -1.457352
 C        -3.004462        -1.085539        -0.514811
 C        -1.677652        -1.256455        -1.156954
 O        -0.631264        -1.064366        -0.329943
 C         0.019686         0.117400         0.064177
 O         0.949277         0.051090         0.858107
 C        -0.476550         1.310595        -0.690319
 C        -2.048753         1.207036        -0.787244
 H        -2.820612        -0.899417        -3.379668
 H        -4.187376         0.304140        -3.029446
 H        -2.411490         0.922475        -3.349621
 H        -2.982942        -0.789913         0.590242
 H        -3.982856        -1.614526        -0.829893
 H        -1.343898        -1.944085        -1.919494
 H         0.055637         2.119476        -0.255178
 H        -0.187319         1.189506        -1.641856
 H        -2.500672         1.250422         0.154768
 H        -2.385433         2.183534        -1.289974
