19
Iteration:  3109charge 0 multiplicity 1
 C        -3.372449        -0.113612        -2.743690
 C        -2.479515        -0.002871        -1.539676
 C        -2.843128        -0.950495        -0.352610
 C        -1.588116        -1.243799        -1.237900
 O        -0.362482        -1.109067        -0.532343
 C        -0.039111         0.057301         0.158724
 O         0.823518         0.020789         0.964149
 C        -0.740187         1.356144        -0.246681
 C        -1.831155         1.362688        -1.344820
 H        -3.615807        -1.162000        -2.970407
 H        -4.375236         0.378164        -2.586837
 H        -2.798443         0.166783        -3.581685
 H        -2.708639        -0.679680         0.686843
 H        -3.762625        -1.487227        -0.469418
 H        -1.560439        -2.138047        -1.860720
 H        -1.134796         1.818185         0.661895
 H         0.210134         1.828522        -0.591764
 H        -2.659713         2.027497        -1.039355
 H        -1.468872         1.661543        -2.321850
