19
Iteration:   328
 C        -3.408340        -0.093207        -2.745778
 C        -2.513826        -0.061437        -1.537947
 C        -2.846288        -0.853451        -0.303819
 C        -1.626026        -1.219988        -1.175591
 O        -0.290887        -1.104386        -0.656174
 C        -0.059426         0.072421         0.150232
 O         0.845521        -0.038503         0.958778
 C        -0.838242         1.388760        -0.164434
 C        -1.765704         1.303559        -1.398789
 H        -3.629276        -1.166075        -3.027840
 H        -4.317646         0.574713        -2.463614
 H        -2.951697         0.254069        -3.671684
 H        -2.555383        -0.566060         0.716031
 H        -3.442311        -1.732608        -0.238803
 H        -1.594180        -2.184755        -1.785559
 H        -1.268237         1.717641         0.828291
 H        -0.060504         2.036693        -0.381267
 H        -2.498226         2.140008        -1.276141
 H        -1.086178         1.357350        -2.277176
