19
Iteration:   475
 C        -3.141373        -0.180162        -2.943395
 C        -2.537934        -0.037567        -1.587128
 C        -3.072240        -0.979736        -0.465581
 C        -1.740489        -1.214586        -1.152405
 O        -0.588326        -1.084035        -0.227140
 C         0.083125         0.110444         0.059080
 O         1.196547         0.023616         0.548282
 C        -0.783885         1.362218         0.022567
 C        -1.887359         1.354191        -1.128747
 H        -3.610819        -1.133031        -2.989151
 H        -3.881520         0.541450        -3.168630
 H        -2.395809         0.084782        -3.711879
 H        -3.049022        -0.534054         0.506270
 H        -3.908445        -1.576287        -0.693713
 H        -1.619326        -2.236511        -1.578649
 H        -1.217280         1.403779         1.048012
 H        -0.232543         2.187628        -0.070532
 H        -2.672264         2.082475        -0.990849
 H        -1.401450         1.753704        -1.990766
