19
Iteration:  4820
 C        -3.265561        -0.064056        -2.867218
 C        -2.522207        -0.040126        -1.533490
 C        -2.921068        -0.879107        -0.292930
 C        -1.723533        -1.245880        -1.177530
 O        -0.436804        -1.109304        -0.497699
 C        -0.034034         0.030190         0.126674
 O         0.980758         0.040653         0.841037
 C        -0.811355         1.273752        -0.162236
 C        -1.735010         1.299190        -1.298814
 H        -3.456042        -1.080369        -3.222717
 H        -4.224384         0.492000        -2.753080
 H        -2.619581         0.382914        -3.572645
 H        -2.632297        -0.484935         0.671696
 H        -3.927407        -1.289531        -0.385038
 H        -1.699103        -2.206669        -1.770889
 H        -1.277424         1.549629         0.791827
 H        -0.065659         2.105680        -0.315474
 H        -2.529900         2.092920        -1.021580
 H        -1.339524         1.629624        -2.295951
