19
Iteration:  1308
 C        -3.039900         0.102432        -2.818700
 C        -2.480296        -0.072242        -1.428341
 C        -3.098270        -1.195094        -0.549767
 C        -1.596990        -1.302432        -1.154369
 O        -0.463767        -1.164048        -0.243229
 C         0.031604         0.163525         0.017989
 O         0.823911         0.219921         0.870739
 C        -0.532080         1.244952        -0.745994
 C        -2.104275         1.302978        -0.759504
 H        -3.238602        -0.806269        -3.310161
 H        -3.904228         0.791982        -2.816641
 H        -2.282222         0.580022        -3.522360
 H        -3.106412        -1.171660         0.490075
 H        -3.887024        -1.715573        -0.987742
 H        -1.373649        -1.998134        -1.944642
 H        -0.132931         2.341188        -0.406997
 H        -0.282778         1.220036        -1.941619
 H        -2.505272         1.387556         0.179362
 H        -2.435079         2.132701        -1.345736
