19
Iteration:   406charge 0 multiplicity 1
 C        -3.234888        -0.066388        -2.872325
 C        -2.486654        -0.102688        -1.537022
 C        -3.012648        -0.993737        -0.364694
 C        -1.703499        -1.221827        -1.184664
 O        -0.496000        -1.050178        -0.409592
 C         0.017808         0.080524         0.107396
 O         1.010392         0.059145         0.823900
 C        -0.656686         1.342288        -0.268301
 C        -1.884284         1.241068        -1.159131
 H        -3.766213        -1.057422        -3.128622
 H        -4.005522         0.756593        -2.913407
 H        -2.508671         0.394105        -3.539250
 H        -2.932631        -0.540109         0.663346
 H        -3.850607        -1.730707        -0.653843
 H        -1.652908        -2.152286        -1.626372
 H        -0.833428         1.829674         0.629337
 H         0.079930         1.871603        -0.739359
 H        -2.674927         1.936613        -0.720129
 H        -1.775753         1.779840        -2.099840
