19
Iteration:  4667
 C        -3.311060        -0.067068        -2.775745
 C        -2.451404        -0.013240        -1.580675
 C        -2.851444        -0.798012        -0.368594
 C        -1.713771        -1.267792        -1.165961
 O        -0.441246        -1.133178        -0.534842
 C        -0.045457        -0.006279         0.094150
 O         0.925094         0.017716         0.876316
 C        -0.822131         1.297790        -0.144357
 C        -1.759918         1.314016        -1.307930
 H        -3.205887        -1.103190        -3.148306
 H        -4.370160         0.126516        -2.500725
 H        -3.002832         0.665018        -3.463237
 H        -2.549513        -0.522608         0.668193
 H        -3.829234        -1.301850        -0.319741
 H        -1.559085        -2.169221        -1.745252
 H        -1.322763         1.449066         0.896530
 H         0.026309         2.096672        -0.257992
 H        -2.474315         2.154520        -1.271329
 H        -1.215925         1.521130        -2.183252
