19
Iteration:  1191
 C        -3.400708        -0.048814        -2.765030
 C        -2.424757        -0.068551        -1.579736
 C        -2.831978        -1.060992        -0.430846
 C        -1.591303        -1.238912        -1.163797
 O        -0.373484        -1.070035        -0.432235
 C        -0.003614         0.088163         0.152022
 O         0.932618         0.024459         0.903749
 C        -0.846228         1.369607        -0.239475
 C        -1.909782         1.314691        -1.334246
 H        -4.082490        -0.897580        -2.740699
 H        -3.888363         0.918008        -2.591395
 H        -2.869042        -0.017979        -3.799808
 H        -2.722427        -0.749530         0.612387
 H        -3.742494        -1.633171        -0.601292
 H        -1.386028        -1.963667        -1.903784
 H        -1.177990         1.553781         0.741971
 H        -0.039069         1.997764        -0.407971
 H        -2.818242         2.047822        -1.157590
 H        -1.338533         1.793198        -2.206516
