19
Iteration:  1340charge 0 multiplicity 1
 C        -3.057265         0.243373        -2.840159
 C        -2.568355        -0.067261        -1.404490
 C        -3.047948        -1.386144        -0.686103
 C        -1.585054        -1.267997        -1.151504
 O        -0.664469        -1.037794        -0.022957
 C         0.018971         0.163319        -0.001070
 O         0.895587         0.278054         0.814039
 C        -0.454201         1.202222        -0.917872
 C        -2.024802         1.160461        -0.675276
 H        -3.487038        -0.616716        -3.233926
 H        -3.820696         1.040084        -2.840123
 H        -2.157517         0.619924        -3.296738
 H        -3.234205        -1.470010         0.325311
 H        -3.617502        -1.964339        -1.303546
 H        -1.126951        -1.905647        -1.904457
 H        -0.129893         2.250359        -0.518647
 H        -0.238278         1.015209        -2.040824
 H        -2.104073         1.095384         0.344913
 H        -2.394091         2.108069        -0.901354
