19
Iteration:  4271
 C        -3.341341        -0.057090        -2.849011
 C        -2.574434        -0.009733        -1.487103
 C        -2.844010        -0.930435        -0.317902
 C        -1.680660        -1.205759        -1.253528
 O        -0.375936        -1.174949        -0.610861
 C        -0.042466         0.007522         0.152403
 O         0.895968         0.056085         0.980636
 C        -0.707666         1.272010        -0.230599
 C        -1.846570         1.345083        -1.170930
 H        -3.491158        -1.076542        -3.260460
 H        -4.319212         0.539314        -2.742075
 H        -2.707133         0.576255        -3.594442
 H        -2.475522        -0.526505         0.633547
 H        -3.700340        -1.671606        -0.295907
 H        -1.807761        -1.967960        -2.001424
 H        -0.637708         1.923480         0.571336
 H         0.000209         1.773515        -0.955170
 H        -2.488165         2.229286        -0.960937
 H        -1.474324         1.621440        -2.270318
