19
Iteration:  2557charge 0 multiplicity 1
 C        -3.479049        -0.179598        -2.595600
 C        -2.400923        -0.023330        -1.562229
 C        -2.747884        -0.871895        -0.336350
 C        -1.545892        -1.269829        -1.159461
 O        -0.184494        -0.963360        -0.764885
 C        -0.085039         0.071745         0.123560
 O         0.474034        -0.108339         1.156876
 C        -0.571499         1.377345        -0.324387
 C        -1.843253         1.333617        -1.409472
 H        -3.593956        -1.223798        -2.972426
 H        -4.495444        -0.090245        -2.220579
 H        -3.315584         0.483223        -3.479571
 H        -2.385093        -0.599098         0.602475
 H        -3.605434        -1.513872        -0.289837
 H        -1.543909        -2.132703        -1.739038
 H        -0.814772         1.792939         0.551994
 H         0.114779         1.997516        -0.925519
 H        -2.737673         2.005774        -1.029550
 H        -1.398127         1.756162        -2.448211
