19
Iteration:  3452charge 0 multiplicity 1
 C        -3.263914         0.324384        -2.645965
 C        -2.431078        -0.031081        -1.408534
 C        -3.041792        -1.240145        -0.712166
 C        -1.574569        -1.417153        -1.244856
 O        -0.528554        -1.155930        -0.254718
 C         0.048581         0.095069         0.004532
 O         0.581665         0.341664         1.021136
 C        -0.358705         1.145860        -0.937598
 C        -1.823431         1.224238        -0.736198
 H        -3.781428        -0.511268        -3.067590
 H        -3.996721         1.036946        -2.201175
 H        -2.666243         0.834664        -3.383187
 H        -3.162290        -1.167831         0.396384
 H        -3.770911        -1.865216        -1.338199
 H        -1.263449        -2.248301        -1.968633
 H         0.251435         2.071014        -0.620347
 H        -0.167568         1.025056        -1.951406
 H        -1.939820         1.041123         0.235378
 H        -2.249649         2.187734        -1.027746
