19
Iteration:  3244
 C        -2.734369        -0.040197        -3.000877
 C        -2.394702        -0.010915        -1.574661
 C        -3.191649        -0.852644        -0.528467
 C        -1.787910        -1.340831        -0.866876
 O        -0.646609        -1.174035         0.053636
 C        -0.029605         0.069901         0.016259
 O         1.131634         0.222609        -0.116442
 C        -0.988719         1.170466         0.252880
 C        -1.857937         1.317821        -1.030412
 H        -2.650503        -1.038142        -3.419034
 H        -3.739573         0.289525        -3.341918
 H        -1.925865         0.406431        -3.520760
 H        -3.380812        -0.447170         0.499199
 H        -3.877601        -1.496344        -1.180246
 H        -1.606675        -2.382470        -1.368069
 H        -1.497345         0.877479         1.176181
 H        -0.498101         2.137956         0.554609
 H        -2.745185         1.899953        -0.785513
 H        -1.246443         1.802566        -1.682369
