19
Iteration:  4799
 C        -3.406254        -0.053968        -2.729265
 C        -2.419170        -0.111244        -1.594391
 C        -2.937078        -0.866040        -0.422992
 C        -1.629758        -1.264681        -1.104907
 O        -0.349794        -1.055481        -0.612354
 C        -0.049089         0.026200         0.164295
 O         0.886120        -0.071164         0.948801
 C        -0.778136         1.457273        -0.168408
 C        -1.752719         1.276682        -1.312038
 H        -4.020680        -0.945934        -2.766896
 H        -4.120959         0.768486        -2.541291
 H        -3.003141         0.057869        -3.699249
 H        -2.970377        -0.324022         0.518864
 H        -3.720030        -1.612497        -0.643693
 H        -1.604950        -2.222925        -1.717538
 H        -0.994048         1.905812         0.830625
 H         0.154451         2.037993        -0.489203
 H        -2.584234         2.029830        -1.459298
 H        -1.269644         1.341675        -2.247653
