19
Iteration:  4000
 C        -3.023316        -0.053948        -2.900687
 C        -2.479670        -0.008757        -1.529228
 C        -3.158445        -0.977132        -0.555974
 C        -1.742390        -1.231656        -1.155124
 O        -0.558279        -1.170115        -0.223073
 C         0.041302        -0.000273         0.111617
 O         1.163925         0.122690         0.599208
 C        -0.707591         1.289474        -0.301509
 C        -2.045068         1.327138        -0.883609
 H        -3.259188        -1.048227        -3.224294
 H        -3.945073         0.565217        -2.859448
 H        -2.456514         0.513139        -3.550432
 H        -3.043894        -0.682861         0.478874
 H        -4.016669        -1.577978        -0.879736
 H        -1.494273        -2.065190        -1.807659
 H        -0.659107         1.934326         0.584000
 H        -0.009217         1.725700        -1.210512
 H        -2.818535         1.775368        -0.159433
 H        -1.827771         2.061799        -1.658888
