19
Iteration:  1696
 C        -3.145187         0.170765        -2.775249
 C        -2.442846        -0.058595        -1.474821
 C        -3.013468        -1.334972        -0.682200
 C        -1.607164        -1.309440        -1.145594
 O        -0.557220        -1.098729        -0.106983
 C         0.047393         0.132219        -0.003649
 O         0.867793         0.255000         0.920426
 C        -0.480593         1.278508        -0.771000
 C        -2.056933         1.253702        -0.838150
 H        -3.272698        -0.799591        -3.423635
 H        -4.134997         0.591727        -2.535742
 H        -2.653833         0.852629        -3.490811
 H        -3.163249        -1.168745         0.340413
 H        -3.909872        -1.782559        -1.080728
 H        -1.138120        -1.956354        -1.930009
 H        -0.207791         2.247400        -0.458900
 H        -0.347049         0.983676        -1.852721
 H        -2.567108         1.311864         0.147965
 H        -2.413379         2.221946        -1.271107
