19
Iteration:  1011charge 0 multiplicity 1
 C        -2.809639        -0.091662        -3.022979
 C        -2.473589        -0.023233        -1.524755
 C        -3.151021        -1.100404        -0.609204
 C        -1.704846        -1.241565        -0.992884
 O        -0.634536        -1.131220         0.064843
 C         0.074125         0.105928         0.017631
 O         1.267973         0.079900         0.248700
 C        -0.797223         1.361871        -0.115065
 C        -2.227705         1.369503        -0.915197
 H        -3.305605        -1.089551        -3.400419
 H        -3.653690         0.631847        -3.248650
 H        -2.038452         0.365192        -3.676641
 H        -3.405815        -0.820260         0.439231
 H        -3.918055        -1.857126        -1.108501
 H        -1.587095        -2.086677        -1.575429
 H        -0.918463         1.540360         1.004365
 H        -0.263633         2.158984        -0.305771
 H        -2.953159         1.881297        -0.186229
 H        -2.228668         2.114938        -1.856299
