19
Iteration:  1104charge 0 multiplicity 1
 C        -3.146344        -0.168384        -2.916563
 C        -2.477748        -0.087685        -1.578245
 C        -3.066218        -0.875490        -0.438223
 C        -1.777051        -1.265590        -1.080681
 O        -0.407338        -1.119576        -0.438879
 C         0.039286         0.085136         0.077397
 O         1.121183         0.150493         0.635125
 C        -0.925744         1.261917         0.055040
 C        -1.819187         1.355347        -1.147505
 H        -3.376725        -1.180657        -3.131965
 H        -4.166136         0.246977        -2.920200
 H        -2.690406         0.386910        -3.799313
 H        -2.936052        -0.570486         0.529542
 H        -3.895350        -1.531130        -0.583428
 H        -1.787846        -2.260484        -1.593707
 H        -1.429979         1.398987         0.947267
 H        -0.243568         2.193182        -0.069833
 H        -2.738630         2.010861        -1.081544
 H        -1.293976         1.735391        -1.942145
