19
Iteration:  1207charge 0 multiplicity 1
 C        -3.394550        -0.039375        -2.805430
 C        -2.527512        -0.045230        -1.541623
 C        -2.829795        -1.062589        -0.437188
 C        -1.533946        -1.215472        -1.281944
 O        -0.387656        -1.202918        -0.353002
 C         0.046992         0.038647         0.141177
 O         0.928613         0.072872         0.950604
 C        -0.745590         1.403381        -0.281086
 C        -1.972205         1.382039        -1.281494
 H        -4.004048        -0.992486        -3.045168
 H        -4.122392         0.774201        -2.714397
 H        -2.841328         0.057916        -3.707849
 H        -2.614020        -0.743740         0.621149
 H        -3.639399        -1.808658        -0.545231
 H        -1.525006        -2.100401        -1.996216
 H        -1.112043         1.989300         0.635326
 H        -0.008097         2.280515        -0.685517
 H        -2.701075         1.979639        -0.844538
 H        -1.825551         1.687583        -2.266527
