19
Iteration:    22
 C        -3.039921        -0.202063        -2.991360
 C        -2.569135        -0.027274        -1.543528
 C        -3.177310        -0.823084        -0.354105
 C        -1.782951        -1.160213        -0.897767
 O        -0.438622        -1.078170        -0.429600
 C         0.045007         0.075418         0.080070
 O         1.212715         0.068469         0.455450
 C        -0.999660         1.246033         0.146047
 C        -1.761535         1.274582        -1.232991
 H        -3.230770        -1.267449        -3.236684
 H        -3.999763         0.355945        -3.238725
 H        -2.259755         0.213682        -3.699162
 H        -3.442597        -0.341632         0.577616
 H        -3.902556        -1.605310        -0.607949
 H        -1.815780        -2.113773        -1.410711
 H        -1.661195         1.067382         0.934509
 H        -0.530179         2.208932         0.372290
 H        -2.330200         2.298975        -1.401761
 H        -1.001659         1.326320        -2.031998
