19
Iteration:  4423charge 0 multiplicity 1
 C        -3.231710        -0.066397        -2.893667
 C        -2.559189         0.030082        -1.516354
 C        -3.077967        -0.864958        -0.434561
 C        -1.728715        -1.223219        -1.102531
 O        -0.430894        -1.158406        -0.430726
 C         0.086858         0.011027         0.029396
 O         1.135910         0.066323         0.741457
 C        -0.823597         1.221973        -0.049715
 C        -1.827098         1.371284        -1.197126
 H        -3.647002        -1.032514        -2.915669
 H        -4.070245         0.589155        -3.037509
 H        -2.511365        -0.063531        -3.721987
 H        -3.215050        -0.670039         0.667626
 H        -3.918436        -1.540294        -0.703837
 H        -1.689133        -1.940374        -1.948992
 H        -1.409334         1.161233         0.943859
 H        -0.139571         2.112897        -0.012380
 H        -2.583828         2.161175        -1.008126
 H        -1.372632         1.524422        -2.107617
