19
Iteration:    77
 C        -2.852405        -0.071643        -2.989784
 C        -2.359227         0.010000        -1.567014
 C        -3.127869        -0.784703        -0.388799
 C        -1.769322        -1.245450        -0.888268
 O        -0.521406        -1.238782        -0.099641
 C        -0.048525         0.009567         0.132350
 O         1.134334         0.165238         0.076323
 C        -1.062516         1.154628         0.113845
 C        -1.873015         1.369828        -1.181519
 H        -3.326048        -1.085161        -3.101421
 H        -3.638982         0.731397        -3.123441
 H        -2.050364        -0.073956        -3.784094
 H        -3.183492        -0.352152         0.557408
 H        -3.919053        -1.513987        -0.606598
 H        -1.660897        -2.096887        -1.547301
 H        -1.678432         0.993925         0.881440
 H        -0.541215         2.034788         0.254969
 H        -2.725834         2.079387        -0.858370
 H        -1.187260         1.738118        -1.926006
