19
Iteration:  4724
 C        -3.411127        -0.114800        -2.624980
 C        -2.367009        -0.035141        -1.595492
 C        -2.789043        -0.847887        -0.196535
 C        -1.643597        -1.249764        -1.194084
 O        -0.312144        -0.978794        -0.803119
 C        -0.070372         0.071199         0.118421
 O         0.669397        -0.176309         1.069470
 C        -0.780373         1.385053        -0.219613
 C        -1.647680         1.289427        -1.448239
 H        -4.017305        -1.016295        -2.600726
 H        -4.086984         0.746200        -2.439311
 H        -3.075076        -0.074026        -3.686524
 H        -2.624504        -0.362793         0.753510
 H        -3.812466        -1.206913        -0.361323
 H        -1.645123        -2.264341        -1.728672
 H        -1.495406         1.474680         0.694378
 H        -0.117599         2.270945        -0.054049
 H        -2.418507         2.002996        -1.385607
 H        -1.132128         1.514006        -2.379962
