19
Iteration:  1522charge 0 multiplicity 1
 C        -3.091265        -0.025967        -2.902426
 C        -2.430343        -0.068776        -1.563106
 C        -3.025890        -1.124679        -0.610944
 C        -1.574832        -1.196174        -1.077372
 O        -0.657741        -1.126878        -0.118001
 C         0.019380         0.074625         0.099993
 O         1.147876         0.131251         0.599679
 C        -0.728599         1.395040        -0.255148
 C        -2.111076         1.268835        -1.007868
 H        -3.368165        -1.070014        -3.108075
 H        -4.045828         0.411932        -2.857181
 H        -2.645226         0.391938        -3.709275
 H        -3.055510        -0.741749         0.374357
 H        -3.567421        -1.888876        -1.025483
 H        -1.300023        -1.874463        -1.879051
 H        -0.612955         1.985042         0.579502
 H        -0.172800         1.881072        -1.018481
 H        -2.870875         1.502315        -0.341446
 H        -2.114074         2.043335        -1.758026
