19
Iteration:   420charge 0 multiplicity 1
 C        -3.202231         0.039210        -2.833961
 C        -2.485982        -0.108071        -1.508148
 C        -2.995340        -1.020733        -0.459871
 C        -1.671275        -1.351864        -1.061928
 O        -0.508140        -1.150480        -0.313959
 C         0.015108         0.114398         0.017609
 O         0.976160         0.081711         0.750284
 C        -0.640845         1.423997        -0.272099
 C        -1.923171         1.268226        -1.173726
 H        -3.798507        -0.819136        -3.146093
 H        -3.830744         0.874777        -2.725311
 H        -2.555114         0.077657        -3.739360
 H        -3.007356        -0.754583         0.583744
 H        -3.979921        -1.481302        -0.727084
 H        -1.457113        -2.055091        -1.856897
 H        -0.920694         1.877971         0.811758
 H         0.047100         2.116450        -0.680281
 H        -2.761617         1.769542        -0.749019
 H        -1.601277         1.691695        -2.089603
