19
Iteration:  2251charge 0 multiplicity 1
 C        -2.935556        -0.102431        -2.945982
 C        -2.523987        -0.060038        -1.514686
 C        -3.116812        -0.948127        -0.461398
 C        -1.688516        -1.237625        -1.086989
 O        -0.563283        -1.164808        -0.267790
 C         0.003715         0.080199         0.092042
 O         1.160620         0.149923         0.430351
 C        -0.878956         1.311212         0.000115
 C        -2.013115         1.313535        -1.085230
 H        -3.188984        -1.126338        -3.272205
 H        -3.850996         0.441408        -3.006795
 H        -2.068453         0.222282        -3.564861
 H        -2.910158        -0.588935         0.577496
 H        -3.912402        -1.698065        -0.541928
 H        -1.589564        -2.087671        -1.794423
 H        -1.097921         1.407997         1.127072
 H        -0.084361         2.254116        -0.308604
 H        -2.800549         1.961861        -0.776554
 H        -1.441586         1.756522        -1.867399
