19
Iteration:  2463charge 0 multiplicity 1
 C        -3.264664        -0.130919        -2.897618
 C        -2.461471        -0.047212        -1.654868
 C        -2.900585        -0.994123        -0.371882
 C        -1.678967        -1.188820        -1.128636
 O        -0.473903        -1.121361        -0.375770
 C         0.016387         0.105094         0.146979
 O         1.059351         0.102199         0.761990
 C        -0.832390         1.345497        -0.111505
 C        -1.908730         1.288781        -1.260456
 H        -3.968858        -0.960392        -2.849639
 H        -3.929942         0.728578        -2.989562
 H        -2.611766        -0.233743        -3.794239
 H        -2.805476        -0.706775         0.677067
 H        -3.871901        -1.496613        -0.631698
 H        -1.574692        -2.045619        -1.755960
 H        -1.299480         1.394224         0.981820
 H        -0.055016         2.089939        -0.154419
 H        -2.694646         1.933579        -1.083726
 H        -1.407870         1.650844        -2.090946
