19
Iteration:   795
 C        -3.023496         0.255048        -2.848912
 C        -2.572169        -0.049829        -1.334653
 C        -2.982693        -1.260175        -0.562360
 C        -1.670752        -1.332530        -1.116558
 O        -0.552983        -1.183937        -0.264265
 C         0.051261         0.079201        -0.099266
 O         0.681107         0.358872         0.909672
 C        -0.432514         1.203618        -0.910494
 C        -1.930387         1.227409        -0.637955
 H        -2.962348        -0.552205        -3.457251
 H        -4.001441         0.663713        -2.698225
 H        -2.459191         1.085716        -3.364303
 H        -3.240835        -1.388756         0.607917
 H        -3.704025        -2.043987        -1.054817
 H        -1.497891        -1.923644        -1.938231
 H         0.152477         2.097264        -0.507273
 H        -0.314917         1.036848        -2.048321
 H        -2.215197         1.183844         0.506029
 H        -2.313619         2.159512        -1.083936
