19
Iteration:  3522charge 0 multiplicity 1
 C        -3.134312         0.000030        -2.747335
 C        -2.483389         0.002187        -1.429974
 C        -3.070312        -1.037769        -0.493946
 C        -1.636561        -1.168924        -1.152398
 O        -0.402480        -1.169518        -0.431625
 C         0.027827         0.072543        -0.038885
 O         0.679148         0.001099         0.970779
 C        -0.458203         1.307318        -0.703986
 C        -1.987854         1.341659        -0.856019
 H        -3.235674        -1.049944        -3.160913
 H        -4.120941         0.407578        -2.579890
 H        -2.459301         0.587587        -3.506778
 H        -2.997476        -0.773752         0.558629
 H        -3.795609        -1.631706        -0.944424
 H        -1.450392        -1.777493        -2.030178
 H        -0.192249         2.110713        -0.053610
 H         0.207482         1.510754        -1.602177
 H        -2.325811         1.467898         0.257138
 H        -2.375532         2.218294        -1.334089
