19
Iteration:   906
 C        -2.982878        -0.041830        -3.024257
 C        -2.486666        -0.059658        -1.550557
 C        -3.072729        -1.122581        -0.590203
 C        -1.654024        -1.209873        -1.037226
 O        -0.680323        -1.065780         0.002433
 C        -0.007637         0.080792         0.107869
 O         1.164735         0.061096         0.333343
 C        -0.710713         1.439956        -0.201791
 C        -2.050024         1.269178        -0.856504
 H        -3.350588        -0.910430        -3.413815
 H        -3.672942         0.751484        -3.227833
 H        -2.089679         0.054933        -3.674836
 H        -3.226273        -1.024171         0.460795
 H        -3.717301        -1.855578        -1.107811
 H        -1.335131        -2.106154        -1.677331
 H        -0.907655         1.811851         0.820406
 H        -0.043596         2.208020        -0.852181
 H        -2.784190         1.465212        -0.071730
 H        -2.271972         1.994937        -1.639536
