19
Iteration:  4182
 C        -3.116733        -0.049909        -2.966350
 C        -2.517702         0.014094        -1.525241
 C        -2.959931        -0.882325        -0.338324
 C        -1.717481        -1.247915        -1.042755
 O        -0.458137        -1.189164        -0.337887
 C         0.033653         0.089696         0.061361
 O         1.145556         0.001671         0.498029
 C        -1.013991         1.299285         0.103834
 C        -1.877520         1.318988        -1.249870
 H        -3.630819        -0.971179        -3.185354
 H        -3.757051         0.843138        -3.163280
 H        -2.354630         0.309716        -3.755159
 H        -2.914548        -0.244866         0.555397
 H        -3.866952        -1.440332        -0.487608
 H        -1.802979        -2.134570        -1.708491
 H        -1.554772         0.996844         1.000731
 H        -0.491620         2.191179         0.276509
 H        -2.636363         2.074976        -1.319083
 H        -1.168790         1.451452        -2.137124
