19
Iteration:  1098charge 0 multiplicity 1
 C        -3.181382        -0.159491        -2.927728
 C        -2.474259        -0.051372        -1.572534
 C        -3.050659        -0.907605        -0.463242
 C        -1.770738        -1.271907        -1.081832
 O        -0.439124        -1.157806        -0.390075
 C         0.040498         0.102203         0.104362
 O         1.128386         0.172993         0.614017
 C        -0.857530         1.279250         0.024864
 C        -1.872802         1.320495        -1.143941
 H        -3.236693        -1.252549        -3.275617
 H        -4.136825         0.387957        -2.948762
 H        -2.553045         0.335053        -3.660060
 H        -3.043542        -0.510025         0.611102
 H        -3.935808        -1.573671        -0.706884
 H        -1.718821        -2.138611        -1.693435
 H        -1.391627         1.297517         1.041482
 H        -0.200783         2.179409        -0.118596
 H        -2.659452         2.039946        -0.901472
 H        -1.364931         1.838898        -2.060089
