19
Iteration:  4720
 C        -3.423391        -0.118761        -2.633681
 C        -2.389497        -0.056759        -1.597037
 C        -2.805314        -0.839607        -0.232893
 C        -1.664875        -1.238022        -1.189067
 O        -0.307459        -0.975660        -0.793898
 C        -0.001932         0.129693         0.135687
 O         0.670004        -0.194354         1.068993
 C        -0.795600         1.356492        -0.203974
 C        -1.647600         1.277387        -1.464958
 H        -3.960950        -1.091287        -2.587944
 H        -4.057542         0.745865        -2.415555
 H        -2.972321         0.036355        -3.597097
 H        -2.628575        -0.294146         0.708247
 H        -3.793436        -1.267355        -0.344640
 H        -1.722056        -2.182637        -1.692915
 H        -1.404511         1.451793         0.697067
 H        -0.119309         2.263406        -0.111465
 H        -2.463028         2.063804        -1.276543
 H        -1.160842         1.448352        -2.403527
