19
Iteration:  4638charge 0 multiplicity 1
 C        -3.202028        -0.040466        -2.834339
 C        -2.413668        -0.043934        -1.544211
 C        -3.036388        -0.896448        -0.451688
 C        -1.739131        -1.229606        -1.043787
 O        -0.508388        -1.171540        -0.310873
 C         0.022393         0.011185         0.065922
 O         1.092540        -0.001181         0.629842
 C        -0.872519         1.344551        -0.074528
 C        -1.803889         1.402329        -1.301991
 H        -3.322543        -1.077645        -3.163155
 H        -4.222400         0.303479        -2.589272
 H        -2.648162         0.555878        -3.628570
 H        -3.027871        -0.692225         0.619781
 H        -3.824975        -1.610003        -0.697388
 H        -1.468243        -2.112626        -1.683766
 H        -1.536604         1.236303         0.765468
 H        -0.186498         2.121958         0.002403
 H        -2.565239         2.167930        -1.119857
 H        -1.220050         1.880923        -2.241962
