19
Iteration:  2910
 C        -3.057865        -0.132311        -2.983932
 C        -2.472684        -0.049213        -1.607616
 C        -3.017495        -0.897448        -0.345783
 C        -1.752793        -1.206615        -1.024210
 O        -0.505724        -1.121510        -0.343747
 C        -0.011876         0.106948         0.147017
 O         1.176913         0.091810         0.475873
 C        -0.994084         1.237170         0.066828
 C        -1.852907         1.287426        -1.203927
 H        -3.164483        -1.150615        -3.284886
 H        -3.958791         0.439520        -3.115138
 H        -2.384656         0.411040        -3.678213
 H        -3.002424        -0.300273         0.584050
 H        -3.883729        -1.538308        -0.567243
 H        -1.682814        -1.974673        -1.727948
 H        -1.634311         1.231602         1.036318
 H        -0.392017         2.139493         0.262591
 H        -2.587529         2.030057        -1.013476
 H        -1.349302         1.618830        -2.042994
