19
Iteration:  3064
 C        -3.502441        -0.165260        -2.700242
 C        -2.476728        -0.024615        -1.547162
 C        -2.675376        -0.847694        -0.250089
 C        -1.617703        -1.250860        -1.239112
 O        -0.216681        -0.931486        -0.806939
 C        -0.104416         0.057256         0.167000
 O         0.560041        -0.083871         1.210055
 C        -0.633019         1.346536        -0.326975
 C        -1.758044         1.263747        -1.393938
 H        -3.498453        -1.143709        -3.188347
 H        -4.517210        -0.008445        -2.273218
 H        -3.242469         0.539590        -3.498329
 H        -2.255496        -0.519806         0.685651
 H        -3.592113        -1.424172         0.037390
 H        -1.602804        -2.251209        -1.853778
 H        -1.012112         1.709033         0.680859
 H         0.167058         1.895877        -0.814127
 H        -2.636001         2.041948        -1.177761
 H        -1.317544         1.444835        -2.408479
