19
Iteration:  4180charge 0 multiplicity 1
 C        -3.113315        -0.044988        -2.968375
 C        -2.503645         0.002011        -1.524402
 C        -2.975796        -0.868449        -0.345370
 C        -1.714750        -1.269059        -1.027866
 O        -0.461842        -1.177535        -0.345299
 C         0.029249         0.093458         0.042152
 O         1.154559        -0.003000         0.490603
 C        -1.026703         1.319780         0.101221
 C        -1.851432         1.304125        -1.224003
 H        -3.605941        -0.967501        -3.248282
 H        -3.799463         0.775312        -3.091463
 H        -2.353067         0.266969        -3.715251
 H        -2.997907        -0.248883         0.535960
 H        -3.890313        -1.430305        -0.474410
 H        -1.814723        -2.148392        -1.724179
 H        -1.603810         0.976923         1.010683
 H        -0.573549         2.184007         0.318805
 H        -2.655335         2.135652        -1.352933
 H        -1.127148         1.482105        -2.074381
