19
Iteration:  4231charge 0 multiplicity 1
 C        -3.275971        -0.104567        -2.819887
 C        -2.420615        -0.046221        -1.547487
 C        -3.094841        -0.925912        -0.463826
 C        -1.671271        -1.313388        -1.118925
 O        -0.413435        -1.114088        -0.465401
 C         0.091324         0.050643        -0.009012
 O         0.998714        -0.092894         0.854810
 C        -0.741082         1.531936        -0.166914
 C        -1.909177         1.394637        -1.144694
 H        -3.966937        -0.998623        -2.706574
 H        -3.819169         0.841551        -2.984065
 H        -2.716845        -0.122631        -3.719355
 H        -3.019824        -0.702956         0.585046
 H        -3.819424        -1.696200        -0.754294
 H        -1.630554        -2.235729        -1.725816
 H        -1.053551         1.776330         0.871887
 H         0.100080         2.254366        -0.524593
 H        -2.831500         1.873016        -0.850728
 H        -1.563944         1.857813        -2.019698
