19
Iteration:  2267
 C        -2.956283        -0.066309        -3.005917
 C        -2.482298        -0.043537        -1.529543
 C        -3.061870        -1.042976        -0.505928
 C        -1.731824        -1.266681        -1.027654
 O        -0.596124        -1.119164        -0.095068
 C         0.002727         0.079809         0.025574
 O         1.186034         0.136896         0.326265
 C        -0.853063         1.329836        -0.002443
 C        -1.961118         1.297749        -0.981695
 H        -3.333468        -1.086337        -3.299996
 H        -3.617910         0.849134        -3.250384
 H        -2.071908         0.095273        -3.654995
 H        -3.239904        -0.807029         0.549814
 H        -3.953100        -1.551131        -0.882023
 H        -1.508277        -2.074248        -1.759071
 H        -1.420236         1.509075         0.951353
 H        -0.268698         2.124424        -0.196276
 H        -2.995753         1.858927        -0.723061
 H        -1.722598         1.927612        -1.949454
