19
Iteration:  2483charge 0 multiplicity 1
 C        -3.360414        -0.139307        -2.803613
 C        -2.454547        -0.055483        -1.551027
 C        -2.944096        -0.918215        -0.483561
 C        -1.594072        -1.311751        -1.141441
 O        -0.330343        -1.079322        -0.452071
 C         0.024858         0.099528         0.108517
 O         0.916256        -0.002301         0.912357
 C        -0.762983         1.429533        -0.193713
 C        -1.925257         1.339845        -1.266565
 H        -3.939296        -1.095201        -2.925777
 H        -4.133260         0.579176        -2.720923
 H        -2.860310        -0.123268        -3.820408
 H        -2.860082        -0.533558         0.520867
 H        -3.677656        -1.734082        -0.642830
 H        -1.464121        -2.158141        -1.718092
 H        -1.289702         1.772692         0.720585
 H         0.153245         2.142632        -0.494796
 H        -2.723837         1.998549        -0.906028
 H        -1.597745         1.711994        -2.243047
