19
Iteration:  1251charge 0 multiplicity 1
 C        -3.163902        -0.126835        -2.808354
 C        -2.503125        -0.032997        -1.526663
 C        -2.990704        -1.010489        -0.468259
 C        -1.644940        -1.282840        -1.112116
 O        -0.363894        -1.096350        -0.521504
 C        -0.017641         0.118296         0.161409
 O         0.884964         0.009028         0.922922
 C        -0.573755         1.447473        -0.437178
 C        -2.093127         1.351591        -1.006849
 H        -3.203411        -1.175385        -3.270877
 H        -4.252373         0.070557        -2.881154
 H        -2.677442         0.490755        -3.542023
 H        -2.950454        -0.767599         0.589654
 H        -3.755399        -1.724324        -0.791056
 H        -1.563431        -2.180488        -1.844345
 H        -0.485899         2.307779         0.344202
 H         0.204825         1.801319        -1.343376
 H        -2.857498         1.609767        -0.317570
 H        -2.171759         1.979989        -1.828968
