19
Iteration:  3645charge 0 multiplicity 1
 C        -3.100850        -0.072689        -3.081586
 C        -2.519599         0.013701        -1.545180
 C        -3.053309        -0.883879        -0.393425
 C        -1.772400        -1.211491        -0.950085
 O        -0.496504        -1.157629        -0.231467
 C         0.026490         0.113108         0.127859
 O         1.207029         0.028697         0.335920
 C        -0.986452         1.171794         0.187032
 C        -1.774856         1.378108        -1.239353
 H        -3.372311        -1.148104        -3.360293
 H        -4.118231         0.516457        -3.167864
 H        -2.355106         0.365986        -3.825401
 H        -2.984681        -0.344393         0.548809
 H        -3.824043        -1.657227        -0.496581
 H        -1.726898        -2.104173        -1.570874
 H        -1.686872         0.916566         0.926050
 H        -0.531308         2.161983         0.606003
 H        -2.545226         2.220462        -1.276887
 H        -1.266310         1.615580        -2.168461
