19
Iteration:  4967charge 0 multiplicity 1
 C        -2.771803        -0.150451        -3.095570
 C        -2.402590        -0.033262        -1.573476
 C        -3.290233        -0.839437        -0.496095
 C        -1.798125        -1.206080        -0.889511
 O        -0.653919        -1.112110        -0.088797
 C         0.059018         0.123987         0.177596
 O         1.221261         0.083348        -0.022386
 C        -0.863519         1.204760         0.263773
 C        -1.921856         1.261310        -1.036240
 H        -3.464758        -0.956589        -3.204824
 H        -3.319355         0.688175        -3.382929
 H        -1.858834        -0.195360        -3.700443
 H        -3.557895        -0.342543         0.435877
 H        -4.205342        -1.369123        -0.868751
 H        -1.634102        -2.086351        -1.596709
 H        -1.613790         1.026829         1.151089
 H        -0.403873         2.197695         0.358276
 H        -2.854061         1.851508        -0.735518
 H        -1.512504         1.900363        -1.740719
