19
Iteration:  2240charge 0 multiplicity 1
 C        -2.981330        -0.159905        -2.920005
 C        -2.461915        -0.036721        -1.521267
 C        -3.087771        -0.938339        -0.417776
 C        -1.761618        -1.210199        -1.059409
 O        -0.471218        -1.133167        -0.355446
 C         0.007677         0.039517         0.071002
 O         1.138627         0.117853         0.510842
 C        -0.912784         1.275407        -0.024604
 C        -1.966416         1.376863        -1.107820
 H        -3.115628        -1.183554        -3.270269
 H        -3.889673         0.401840        -3.065379
 H        -2.332553         0.431631        -3.605185
 H        -3.002892        -0.648713         0.664084
 H        -3.842235        -1.712329        -0.627573
 H        -1.727916        -2.142976        -1.614825
 H        -1.474936         1.447968         0.964571
 H        -0.138336         2.277120        -0.079185
 H        -2.817511         1.985659        -0.921022
 H        -1.585333         1.813743        -2.024809
