19
Iteration:  2905
 C        -3.036875        -0.140787        -3.001198
 C        -2.470661        -0.017318        -1.590224
 C        -3.013243        -0.917078        -0.357522
 C        -1.777480        -1.211489        -1.032866
 O        -0.504109        -1.081389        -0.279305
 C        -0.001842         0.077773         0.098989
 O         1.161143         0.079120         0.427796
 C        -0.987072         1.240712         0.107957
 C        -1.860413         1.296476        -1.190027
 H        -3.105838        -1.178620        -3.451314
 H        -4.020613         0.376914        -3.186056
 H        -2.329347         0.406981        -3.654967
 H        -3.018907        -0.340274         0.546563
 H        -3.898107        -1.513614        -0.519005
 H        -1.616653        -2.198565        -1.608169
 H        -1.565040         1.128739         1.003751
 H        -0.506057         2.201796         0.322873
 H        -2.689636         2.148006        -0.979895
 H        -1.209593         1.650429        -2.122388
