19
Iteration:   879
 C        -2.986462         0.013796        -2.868528
 C        -2.430278        -0.067332        -1.497703
 C        -3.099266        -1.187857        -0.660575
 C        -1.657118        -1.264535        -1.108876
 O        -0.651345        -1.069368        -0.052441
 C         0.045271         0.087984         0.063993
 O         1.189426         0.066733         0.537807
 C        -0.703492         1.412032        -0.349932
 C        -2.147263         1.321941        -0.881334
 H        -3.526992        -0.996328        -3.207267
 H        -3.832301         0.767546        -2.896801
 H        -2.199705         0.204218        -3.636162
 H        -3.245311        -1.044769         0.453889
 H        -3.895064        -1.611677        -1.275928
 H        -1.294022        -2.035015        -1.726927
 H        -0.549715         2.073337         0.549994
 H        -0.231760         1.888064        -1.269240
 H        -2.981339         1.621845        -0.195824
 H        -2.328933         1.966469        -1.763269
