19
Iteration:  1495
 C        -3.041870         0.036575        -2.967774
 C        -2.536234        -0.113447        -1.482527
 C        -2.992543        -1.258365        -0.544382
 C        -1.600633        -1.322662        -1.049630
 O        -0.658096        -1.070236        -0.088877
 C         0.047345         0.105825         0.090586
 O         1.149675         0.135711         0.535166
 C        -0.731261         1.381859        -0.298011
 C        -2.127037         1.336878        -0.993695
 H        -3.605938        -0.785804        -3.424637
 H        -3.691489         0.949744        -3.182859
 H        -2.136459         0.289116        -3.703136
 H        -3.206969        -0.872739         0.501358
 H        -3.739910        -1.737848        -1.272102
 H        -1.241858        -2.025734        -1.822125
 H        -0.699079         1.840832         0.845745
 H        -0.116831         2.174907        -0.953323
 H        -2.857578         1.654995        -0.194567
 H        -2.007706         2.044946        -1.827025
