19
Iteration:   166
 C        -2.898751        -0.075148        -2.954788
 C        -2.443458        -0.018727        -1.550004
 C        -3.061189        -0.930448        -0.439791
 C        -1.723976        -1.222502        -0.987701
 O        -0.692306        -1.160745        -0.066123
 C         0.042543         0.026455        -0.059723
 O         1.171753         0.117544         0.334426
 C        -0.826970         1.221713        -0.095205
 C        -2.018481         1.374876        -1.044112
 H        -2.981141        -1.094158        -3.444967
 H        -3.795199         0.533177        -3.016244
 H        -2.126346         0.435315        -3.541302
 H        -3.292476        -0.404130         0.563213
 H        -3.859706        -1.582354        -0.776023
 H        -1.644710        -2.037711        -1.777232
 H        -1.153364         1.171187         0.827076
 H        -0.182698         2.016401        -0.124886
 H        -2.879313         1.697745        -0.425598
 H        -1.815343         2.024901        -1.851213
