19
Iteration:   973charge 0 multiplicity 1
 C        -2.635299        -0.075270        -3.013189
 C        -2.456226        -0.095749        -1.507486
 C        -3.206280        -1.040464        -0.513816
 C        -1.816451        -1.305628        -0.983066
 O        -0.674165        -1.131224        -0.095638
 C        -0.005554         0.088851         0.020550
 O         1.211588         0.139803         0.186307
 C        -0.806404         1.408238        -0.104040
 C        -2.173530         1.323002        -0.798500
 H        -2.520009        -1.004121        -3.479904
 H        -3.626689         0.302052        -3.120679
 H        -1.845009         0.589694        -3.380546
 H        -3.192917        -0.708643         0.503762
 H        -3.919858        -1.697572        -0.791360
 H        -1.615346        -2.300683        -1.578989
 H        -0.952268         1.767805         0.914676
 H         0.017484         2.232477        -0.636554
 H        -3.068889         1.603856        -0.340752
 H        -1.907752         2.026320        -1.599069
