19
Iteration:   876
 C        -3.012373         0.017500        -2.895926
 C        -2.432195        -0.072836        -1.459058
 C        -3.100807        -1.171999        -0.657163
 C        -1.660449        -1.243517        -1.109996
 O        -0.645098        -1.091318        -0.052271
 C         0.050757         0.086026         0.060987
 O         1.187478         0.074016         0.561369
 C        -0.696978         1.408015        -0.395014
 C        -2.145185         1.318381        -0.870429
 H        -3.514863        -0.977864        -3.210016
 H        -3.852732         0.752527        -2.961589
 H        -2.150350         0.283474        -3.529525
 H        -3.193371        -1.107651         0.389962
 H        -3.807678        -1.618754        -1.262601
 H        -1.267447        -2.085223        -1.778168
 H        -0.608569         2.051660         0.426184
 H        -0.211570         1.889632        -1.121051
 H        -2.910977         1.571062        -0.187713
 H        -2.413933         2.003292        -1.827966
