19
Iteration:   806charge 0 multiplicity 1
 C        -3.001866         0.205433        -2.815733
 C        -2.501745        -0.073451        -1.401460
 C        -3.118537        -1.257863        -0.546865
 C        -1.639820        -1.209684        -1.097233
 O        -0.507190        -1.159756        -0.266042
 C         0.048998         0.090185        -0.067762
 O         0.729454         0.263737         0.891091
 C        -0.468628         1.223864        -0.934663
 C        -1.990986         1.222538        -0.619950
 H        -2.902937        -0.621474        -3.426645
 H        -4.051972         0.408599        -2.874134
 H        -2.418648         1.054480        -3.242166
 H        -3.339843        -1.070919         0.588384
 H        -3.666516        -2.045442        -1.165252
 H        -1.462778        -1.919169        -1.841344
 H         0.039891         2.163418        -0.559944
 H        -0.277605         1.186126        -2.052233
 H        -2.104083         1.257664         0.530753
 H        -2.534184         2.098497        -0.988820
