19
Iteration:  1987charge 0 multiplicity 1
 C        -3.250678        -0.027975        -2.856939
 C        -2.508652        -0.048000        -1.499842
 C        -2.930563        -1.308647        -0.615589
 C        -1.628058        -1.207052        -1.234245
 O        -0.582156        -1.127518        -0.127663
 C         0.050981         0.092808         0.150238
 O         1.004697         0.146354         0.887580
 C        -0.524119         1.392519        -0.597599
 C        -2.054206         1.381564        -0.959479
 H        -3.946354        -0.840072        -3.188724
 H        -3.931929         0.909917        -2.820012
 H        -2.586265         0.177051        -3.841244
 H        -2.958106        -0.949565         0.424768
 H        -3.729098        -1.866090        -0.997530
 H        -1.393590        -2.079264        -1.924966
 H        -0.330437         2.248827         0.061794
 H        -0.012609         1.578024        -1.504396
 H        -2.618672         1.642595        -0.029734
 H        -2.332649         2.157803        -1.805585
