19
Iteration:  2687charge 0 multiplicity 1
 C        -3.283386        -0.170254        -2.879303
 C        -2.458409        -0.064454        -1.604677
 C        -2.995267        -0.825795        -0.444067
 C        -1.684020        -1.258347        -1.053684
 O        -0.445171        -1.078372        -0.418059
 C         0.007505         0.076208         0.101411
 O         1.081265         0.109204         0.676580
 C        -0.891151         1.287695         0.018731
 C        -1.767522         1.301673        -1.266610
 H        -3.424530        -1.257836        -3.202435
 H        -4.294244         0.372001        -2.879430
 H        -2.618277         0.158499        -3.726208
 H        -2.904275        -0.549064         0.555426
 H        -3.782596        -1.534046        -0.639629
 H        -1.669271        -2.219807        -1.583653
 H        -1.778862         1.156009         0.876569
 H        -0.332644         2.263245         0.287567
 H        -2.592281         1.912782        -1.111350
 H        -1.128119         1.634886        -2.025995
