19
Iteration:  1095
 C        -3.189560        -0.152639        -2.936753
 C        -2.474761        -0.025469        -1.570972
 C        -3.052655        -0.919055        -0.455305
 C        -1.743075        -1.274278        -1.078436
 O        -0.456740        -1.165719        -0.370290
 C         0.034184         0.094774         0.109377
 O         1.134378         0.177872         0.605660
 C        -0.847057         1.283918         0.013213
 C        -1.898155         1.307654        -1.158832
 H        -3.220443        -1.192589        -3.300782
 H        -4.116960         0.390752        -2.938617
 H        -2.490294         0.287368        -3.595070
 H        -3.097927        -0.516170         0.535421
 H        -3.923368        -1.562126        -0.735273
 H        -1.665891        -2.096085        -1.752874
 H        -1.316015         1.283067         0.979953
 H        -0.128834         2.249320        -0.072390
 H        -2.606113         2.007052        -0.808891
 H        -1.441033         1.761762        -1.994795
