19
Iteration:  1378
 C        -2.973703         0.204065        -2.821662
 C        -2.551586        -0.066976        -1.427338
 C        -3.064332        -1.262800        -0.770273
 C        -1.601092        -1.237482        -1.031226
 O        -0.642707        -1.034934         0.044127
 C         0.018885         0.127689         0.015810
 O         1.025297         0.217805         0.695415
 C        -0.604357         1.236178        -0.858844
 C        -2.106017         1.148823        -0.685274
 H        -2.978599        -0.726548        -3.482672
 H        -3.949981         0.677032        -2.897348
 H        -2.266172         0.879815        -3.396080
 H        -3.436249        -1.385688         0.336536
 H        -3.621943        -1.997959        -1.519792
 H        -1.154581        -1.952112        -1.766606
 H        -0.130904         2.149224        -0.487414
 H        -0.179704         1.129332        -1.873332
 H        -2.454146         0.961022         0.400348
 H        -2.593494         2.139379        -1.028714
