19
Iteration:  3407
 C        -3.077790         0.143825        -2.833244
 C        -2.595614         0.027016        -1.422881
 C        -2.989466        -1.204735        -0.592309
 C        -1.593491        -1.153115        -1.172271
 O        -0.540118        -1.098044        -0.229436
 C         0.027096         0.054800         0.058195
 O         0.920505         0.035844         0.927577
 C        -0.509086         1.231073        -0.825473
 C        -2.150160         1.314337        -0.731153
 H        -3.072636        -0.824280        -3.348247
 H        -4.107811         0.606086        -2.921556
 H        -2.329126         0.723352        -3.318453
 H        -2.952519        -1.026081         0.542489
 H        -3.808996        -1.790161        -1.030376
 H        -1.390050        -1.867931        -2.039626
 H         0.020991         2.128153        -0.517687
 H        -0.153051         1.059715        -1.854260
 H        -2.430614         1.497068         0.224287
 H        -2.431790         2.115352        -1.505515
