19
Iteration:  1150charge 0 multiplicity 1
 C        -3.286908        -0.155548        -2.869982
 C        -2.473315        -0.032151        -1.547789
 C        -2.916908        -0.869259        -0.263965
 C        -1.703011        -1.215394        -1.106958
 O        -0.321792        -1.026335        -0.682464
 C        -0.019843         0.079183         0.141715
 O         0.990419         0.103808         0.794868
 C        -1.038729         1.183223         0.085199
 C        -1.719623         1.283503        -1.374422
 H        -3.798918        -1.192280        -2.863962
 H        -4.149852         0.508846        -2.972688
 H        -2.691263         0.056541        -3.712277
 H        -2.613791        -0.489606         0.783840
 H        -3.850421        -1.534426        -0.271931
 H        -1.663191        -2.061618        -1.713695
 H        -1.796777         1.138588         0.854569
 H        -0.369399         2.236710         0.154686
 H        -2.115535         2.247722        -1.606086
 H        -0.966533         1.157757        -2.070077
