19
Iteration:  4363charge 0 multiplicity 1
 C        -3.383113        -0.033562        -2.655071
 C        -2.476094        -0.032571        -1.504419
 C        -2.910177        -0.789028        -0.298989
 C        -1.645886        -1.217261        -1.199397
 O        -0.282440        -1.042301        -0.730340
 C        -0.009737         0.088757         0.041974
 O         0.812549        -0.069966         0.939152
 C        -0.902322         1.266104        -0.089829
 C        -1.641761         1.222560        -1.386148
 H        -4.096342        -0.934270        -2.489431
 H        -4.070529         0.882290        -2.641645
 H        -2.897838        -0.096011        -3.641569
 H        -2.708205        -0.507685         0.726634
 H        -3.552594        -1.639582        -0.418677
 H        -1.579853        -2.151696        -1.780119
 H        -1.731049         1.222079         0.720147
 H        -0.338665         2.172096         0.189995
 H        -2.221960         2.126805        -1.520135
 H        -0.874989         1.248104        -2.238091
