19
Iteration:    14charge 0 multiplicity 1
 C        -3.086597        -0.186337        -2.975281
 C        -2.540562        -0.033725        -1.544293
 C        -3.149298        -0.807163        -0.350096
 C        -1.755151        -1.182620        -0.949096
 O        -0.434795        -1.098122        -0.410028
 C         0.040622         0.095253         0.089746
 O         1.158990         0.058849         0.492704
 C        -0.968481         1.256908         0.100810
 C        -1.784367         1.320676        -1.265964
 H        -3.371055        -1.202965        -3.199718
 H        -3.932189         0.370630        -3.155994
 H        -2.365047         0.181990        -3.629275
 H        -3.361632        -0.445796         0.589696
 H        -3.647606        -1.759144        -0.602489
 H        -1.845265        -2.155046        -1.420336
 H        -1.604057         1.060745         1.122068
 H        -0.405846         2.092153         0.344210
 H        -2.327940         2.153349        -1.461247
 H        -1.018321         1.368129        -2.033455
