19
Iteration:   133
 C        -2.935163        -0.067032        -2.931870
 C        -2.517846        -0.063187        -1.497524
 C        -3.155940        -1.069642        -0.600147
 C        -1.726690        -1.269549        -0.960778
 O        -0.673368        -1.115280        -0.005925
 C         0.034311         0.127803         0.129754
 O         1.217930         0.033054         0.109175
 C        -0.823464         1.429955         0.113788
 C        -1.889172         1.300136        -1.097522
 H        -3.512049        -0.943351        -3.378860
 H        -3.559788         0.809749        -3.173864
 H        -1.991727         0.118826        -3.461086
 H        -3.698320        -0.689170         0.321789
 H        -3.825154        -1.660747        -1.200718
 H        -1.401126        -2.044167        -1.701230
 H        -1.318836         1.538430         0.970259
 H        -0.306137         2.265409        -0.039987
 H        -2.678725         2.039561        -0.774636
 H        -1.474866         1.799143        -1.929114
