19
Iteration:   332charge 0 multiplicity 1
 C        -3.411481        -0.128115        -2.763384
 C        -2.489364        -0.085176        -1.534444
 C        -2.845800        -0.820234        -0.282719
 C        -1.617891        -1.248655        -1.207519
 O        -0.311574        -1.102874        -0.658038
 C        -0.056246         0.056243         0.135849
 O         0.835274        -0.033515         0.957520
 C        -0.819344         1.391839        -0.179903
 C        -1.770725         1.340041        -1.357842
 H        -3.595386        -1.197150        -3.016268
 H        -4.267694         0.438198        -2.562432
 H        -2.927278         0.362844        -3.640767
 H        -2.502986        -0.558838         0.777098
 H        -3.624383        -1.712346        -0.259828
 H        -1.635429        -2.145387        -1.740510
 H        -1.286096         1.751123         0.964562
 H         0.054370         2.079092        -0.430888
 H        -2.540183         2.101948        -1.243370
 H        -1.147637         1.574303        -2.210955
