19
Iteration:   668
 C        -3.013830        -0.065541        -2.937470
 C        -2.593622        -0.007837        -1.517002
 C        -3.066137        -0.935005        -0.394655
 C        -1.710151        -1.215047        -1.087227
 O        -0.488219        -1.112520        -0.374558
 C         0.044955         0.023371         0.063005
 O         1.057855         0.057954         0.768167
 C        -0.687898         1.277717        -0.385875
 C        -2.073957         1.313163        -0.965816
 H        -3.094152        -1.076525        -3.436854
 H        -4.056521         0.249150        -2.951556
 H        -2.327273         0.514907        -3.537291
 H        -2.948582        -0.550839         0.619911
 H        -3.772960        -1.690183        -0.646885
 H        -1.702198        -2.087258        -1.699171
 H        -0.639410         1.909268         0.538610
 H         0.146292         1.772050        -1.166424
 H        -2.723227         1.773042        -0.271779
 H        -2.013864         1.953190        -1.888033
