19
Iteration:  4958
 C        -2.759650        -0.127086        -3.048864
 C        -2.368695        -0.072320        -1.569223
 C        -3.249752        -0.809478        -0.492731
 C        -1.774586        -1.231557        -0.950909
 O        -0.675058        -1.147357        -0.099734
 C        -0.031567         0.058402         0.153302
 O         1.191169         0.108337        -0.059995
 C        -0.965487         1.313600         0.268894
 C        -1.851395         1.248255        -0.977390
 H        -3.457822        -1.002184        -3.245434
 H        -3.184008         0.828781        -3.409510
 H        -1.837243        -0.426472        -3.606549
 H        -3.337813        -0.219890         0.419974
 H        -4.012174        -1.559556        -0.685233
 H        -1.753819        -2.190245        -1.577930
 H        -1.591129         1.375401         1.264014
 H        -0.249220         2.184325         0.316984
 H        -2.657450         1.818081        -0.647899
 H        -1.387319         1.842930        -1.730957
