19
Iteration:  3771
 C        -3.064087        -0.008015        -2.966386
 C        -2.501508        -0.051299        -1.495730
 C        -3.113929        -0.953198        -0.540977
 C        -1.706897        -1.289285        -1.066258
 O        -0.561647        -1.198031        -0.227277
 C         0.041857         0.058126         0.066479
 O         1.162643         0.048578         0.566961
 C        -0.713778         1.398611        -0.184631
 C        -2.004597         1.289196        -0.977380
 H        -3.468108        -0.994949        -3.234847
 H        -3.861013         0.786008        -2.924949
 H        -2.396045         0.402761        -3.739470
 H        -3.249285        -0.520163         0.442029
 H        -4.033676        -1.350427        -0.920877
 H        -1.471628        -2.178292        -1.702281
 H        -0.824156         1.964096         0.764361
 H        -0.079268         1.929223        -0.741611
 H        -2.795913         1.684293        -0.362577
 H        -1.899844         1.915103        -1.880113
