19
Iteration:   665charge 0 multiplicity 1
 C        -3.001955        -0.098337        -2.942565
 C        -2.602345        -0.024365        -1.512998
 C        -3.068277        -0.920021        -0.417585
 C        -1.717636        -1.221435        -1.079125
 O        -0.492184        -1.105017        -0.377737
 C         0.048465         0.030177         0.041797
 O         1.053308         0.074665         0.757209
 C        -0.665679         1.276443        -0.369030
 C        -2.070891         1.296380        -0.950086
 H        -3.144417        -1.062377        -3.413912
 H        -4.066333         0.338348        -2.988854
 H        -2.317572         0.654193        -3.527908
 H        -2.961055        -0.531742         0.667582
 H        -3.853054        -1.733458        -0.639080
 H        -1.748344        -2.056367        -1.691929
 H        -0.586118         1.864855         0.578025
 H         0.062439         1.697437        -0.982690
 H        -2.721509         1.854801        -0.293025
 H        -1.926798         1.976144        -1.869060
