19
Iteration:  1752charge 0 multiplicity 1
 C        -2.832624        -0.100757        -3.033360
 C        -2.558917        -0.027544        -1.425118
 C        -3.077332        -1.038923        -0.485136
 C        -1.667161        -1.270087        -1.095204
 O        -0.534625        -1.094807        -0.310336
 C         0.040472         0.096164        -0.003209
 O         1.069313         0.123858         0.698476
 C        -0.688954         1.352740        -0.423599
 C        -2.242386         1.309804        -0.735682
 H        -2.750452        -1.215114        -3.295434
 H        -3.894595         0.249284        -3.172270
 H        -2.168991         0.597097        -3.524109
 H        -3.313673        -0.731391         0.603670
 H        -3.723809        -1.908796        -0.801548
 H        -1.616895        -2.110996        -1.825200
 H        -0.588252         2.306608         0.101194
 H        -0.243070         1.610185        -1.392345
 H        -2.741861         1.361002         0.193665
 H        -2.414228         2.108891        -1.523089
