19
Iteration:     5
 C        -3.162048        -0.139820        -2.912089
 C        -2.470175        -0.038696        -1.543414
 C        -3.035455        -0.816286        -0.377226
 C        -1.730800        -1.225954        -1.028505
 O        -0.466517        -1.124339        -0.384503
 C        -0.022460         0.092142         0.092441
 O         1.109772         0.081281         0.578759
 C        -0.922109         1.258009         0.013304
 C        -1.794984         1.322205        -1.283305
 H        -3.464649        -1.170982        -3.130817
 H        -3.975336         0.546756        -2.909886
 H        -2.438122         0.018940        -3.686388
 H        -3.056563        -0.434791         0.626913
 H        -3.792109        -1.616265        -0.569917
 H        -1.702962        -2.174102        -1.575536
 H        -1.608716         1.147993         0.979725
 H        -0.234574         2.084442         0.086293
 H        -2.556837         2.054316        -1.237399
 H        -1.025051         1.403552        -2.077368
