19
Iteration:  2265
 C        -2.961706        -0.059318        -3.003226
 C        -2.492272        -0.050003        -1.511499
 C        -3.054735        -1.030540        -0.492086
 C        -1.724662        -1.268692        -1.038712
 O        -0.596606        -1.132593        -0.116801
 C        -0.000554         0.093290         0.024989
 O         1.182382         0.142121         0.342831
 C        -0.853162         1.314257         0.010795
 C        -1.970385         1.281465        -0.996528
 H        -3.306600        -1.124802        -3.276718
 H        -3.609041         0.749966        -3.313038
 H        -2.064455         0.138065        -3.672858
 H        -3.225228        -0.690547         0.492810
 H        -3.972269        -1.486288        -0.851676
 H        -1.478945        -2.045353        -1.857232
 H        -1.400632         1.577867         1.024732
 H        -0.148061         2.202283        -0.228553
 H        -2.947677         1.896962        -0.718943
 H        -1.749522         1.846320        -1.984865
