19
Iteration:  2685charge 0 multiplicity 1
 C        -3.302203        -0.174484        -2.878521
 C        -2.466224        -0.068991        -1.607948
 C        -2.965150        -0.829547        -0.448007
 C        -1.674467        -1.239379        -1.043210
 O        -0.435498        -1.064379        -0.424573
 C         0.004870         0.075542         0.097954
 O         1.072764         0.090019         0.695344
 C        -0.898052         1.286277         0.025969
 C        -1.765238         1.292063        -1.282187
 H        -3.477764        -1.220482        -3.174218
 H        -4.264190         0.415238        -2.927506
 H        -2.690839         0.167945        -3.703215
 H        -2.907563        -0.547502         0.553095
 H        -3.772250        -1.562204        -0.612983
 H        -1.665208        -2.155416        -1.535071
 H        -1.734765         1.154286         0.815204
 H        -0.363998         2.217668         0.253557
 H        -2.566850         1.971537        -1.139327
 H        -1.169225         1.640514        -2.080778
