19
Iteration:  3174charge 0 multiplicity 1
 C        -3.004900        -0.106737        -2.927206
 C        -2.455492        -0.079805        -1.554140
 C        -3.184093        -0.858142        -0.413888
 C        -1.777789        -1.264005        -1.044885
 O        -0.488771        -1.122396        -0.365201
 C         0.042502         0.127132         0.128221
 O         1.242128         0.180765         0.457906
 C        -1.022171         1.206700         0.151338
 C        -1.844921         1.262497        -1.241802
 H        -3.762281        -0.942442        -3.041451
 H        -3.653138         0.778640        -3.209015
 H        -2.201973        -0.398498        -3.669871
 H        -3.150257        -0.315264         0.514878
 H        -3.948970        -1.495590        -0.705313
 H        -1.862823        -2.168400        -1.547899
 H        -1.620137         1.125919         1.100931
 H        -0.481242         2.164103         0.335246
 H        -2.549378         1.975653        -1.244817
 H        -1.075535         1.479525        -2.040878
