19
Iteration:  2474charge 0 multiplicity 1
 C        -3.367395        -0.159757        -2.865220
 C        -2.453820        -0.095565        -1.567935
 C        -2.941329        -0.950790        -0.449445
 C        -1.585216        -1.295173        -1.151152
 O        -0.384008        -1.096015        -0.394022
 C         0.035283         0.105422         0.095302
 O         0.988533         0.015102         0.855824
 C        -0.833212         1.390617        -0.153108
 C        -1.889062         1.392544        -1.252500
 H        -3.987947        -1.055931        -2.902389
 H        -3.938231         0.768525        -2.894123
 H        -2.729672        -0.085357        -3.774115
 H        -2.908439        -0.484235         0.539008
 H        -3.859691        -1.609249        -0.617928
 H        -1.514457        -2.187612        -1.739513
 H        -1.153158         1.830270         0.899153
 H        -0.248602         2.237602        -0.508377
 H        -2.674020         2.016557        -1.010525
 H        -1.456617         1.796415        -2.094861
