19
Iteration:  4635charge 0 multiplicity 1
 C        -3.188468        -0.031024        -2.855918
 C        -2.434272        -0.019571        -1.550476
 C        -3.031830        -0.917627        -0.467566
 C        -1.755954        -1.242718        -1.035167
 O        -0.514163        -1.150415        -0.299155
 C         0.010061        -0.005102         0.102090
 O         1.134590         0.020903         0.610246
 C        -0.858120         1.305775        -0.077767
 C        -1.828460         1.406893        -1.288719
 H        -3.336711        -1.093244        -3.173254
 H        -4.222366         0.329523        -2.660936
 H        -2.679281         0.441597        -3.655892
 H        -2.971363        -0.679412         0.618418
 H        -3.842272        -1.578034        -0.789999
 H        -1.615680        -2.133612        -1.637323
 H        -1.568101         1.274000         0.844610
 H        -0.106039         2.179839         0.030878
 H        -2.550092         2.193888        -1.160830
 H        -1.208230         1.761095        -2.159199
