19
Iteration:  1228charge 0 multiplicity 1
 C        -3.281341        -0.105669        -2.800685
 C        -2.489577        -0.013599        -1.534698
 C        -2.894968        -1.079168        -0.459386
 C        -1.607199        -1.226170        -1.197298
 O        -0.413737        -1.075929        -0.441706
 C        -0.011782         0.040089         0.112160
 O         0.862381         0.124892         0.911879
 C        -0.660140         1.289797        -0.319867
 C        -1.926377         1.341854        -1.102717
 H        -3.698452        -1.142368        -3.132899
 H        -4.261017         0.408185        -2.694826
 H        -2.827699         0.330203        -3.654459
 H        -2.838090        -0.716358         0.630578
 H        -3.806403        -1.662904        -0.746039
 H        -1.396152        -1.991527        -1.999059
 H        -0.735945         2.031839         0.468306
 H         0.119660         1.869973        -1.043309
 H        -2.718736         1.858323        -0.553274
 H        -1.780343         1.850271        -2.006906
