19
Iteration:  3829
 C        -3.045013         0.035214        -2.808319
 C        -2.484413        -0.008201        -1.432295
 C        -3.109088        -1.072307        -0.587205
 C        -1.677820        -1.260798        -1.190027
 O        -0.559021        -1.139591        -0.340540
 C         0.009325         0.030840         0.103667
 O         0.980612         0.096927         0.875911
 C        -0.531835         1.277259        -0.668499
 C        -2.033709         1.406703        -0.795958
 H        -3.063966        -0.946835        -3.306731
 H        -4.041705         0.201078        -2.661174
 H        -2.629265         0.727770        -3.544519
 H        -3.033773        -1.012285         0.523916
 H        -4.020907        -1.665085        -0.917623
 H        -1.540573        -2.095583        -1.879383
 H        -0.111132         2.153699        -0.251088
 H        -0.106562         1.148177        -1.692475
 H        -2.475524         1.546432         0.180537
 H        -2.476421         2.307320        -1.310897
