19
Iteration:  1242
 C        -3.210151        -0.135389        -2.821190
 C        -2.415528        -0.075316        -1.508552
 C        -3.015122        -1.056260        -0.443168
 C        -1.641647        -1.214057        -1.168679
 O        -0.398116        -1.107116        -0.530401
 C        -0.048694         0.126684         0.151934
 O         0.903238         0.055933         0.929582
 C        -0.619067         1.429458        -0.393922
 C        -2.030237         1.336150        -1.076642
 H        -3.236892        -1.156609        -3.044477
 H        -4.224903         0.241973        -2.565433
 H        -2.745259         0.515377        -3.595395
 H        -2.992764        -0.768132         0.530338
 H        -3.743842        -1.761149        -0.714163
 H        -1.629989        -2.078525        -1.895404
 H        -0.476090         2.151273         0.547138
 H         0.274569         1.564018        -1.126417
 H        -2.722477         1.674410        -0.390330
 H        -2.042442         2.086776        -1.854590
