19
Iteration:  1640charge 0 multiplicity 1
 C        -3.132895         0.143557        -2.743920
 C        -2.482137        -0.066861        -1.375144
 C        -3.002853        -1.344364        -0.664103
 C        -1.581216        -1.258563        -1.213257
 O        -0.566424        -1.122292        -0.207236
 C        -0.007171         0.155417         0.046111
 O         0.753809         0.271460         1.024570
 C        -0.424787         1.293140        -1.017691
 C        -1.987030         1.244200        -0.699790
 H        -3.862215        -0.684243        -3.098082
 H        -3.770223         1.035074        -2.759561
 H        -2.364932         0.369783        -3.549767
 H        -3.059773        -1.317121         0.383363
 H        -3.628633        -1.877464        -1.271530
 H        -1.197246        -1.997941        -1.903047
 H        -0.021252         2.285744        -0.873999
 H        -0.209245         1.141934        -2.125952
 H        -2.166663         1.124022         0.426253
 H        -2.534227         2.125776        -1.117208
