19
Iteration:  1092
 C        -3.186975        -0.145249        -2.938313
 C        -2.481743        -0.005500        -1.565023
 C        -3.059127        -0.935881        -0.451793
 C        -1.701833        -1.264441        -1.070166
 O        -0.478380        -1.168944        -0.344972
 C         0.027521         0.078160         0.109182
 O         1.141739         0.178747         0.595416
 C        -0.829282         1.300274        -0.012941
 C        -1.921747         1.287482        -1.166741
 H        -3.257467        -1.123196        -3.296965
 H        -4.152996         0.395227        -2.942747
 H        -2.373348         0.311738        -3.636501
 H        -3.153116        -0.512513         0.506430
 H        -3.865023        -1.515416        -0.745729
 H        -1.597980        -2.111100        -1.850394
 H        -1.279103         1.305912         0.964447
 H        -0.180331         2.154920         0.015079
 H        -2.669445         2.030674        -0.694541
 H        -1.464657         1.714124        -2.026132
