19
Iteration:  1433charge 0 multiplicity 1
 C        -2.778990        -0.061899        -3.060808
 C        -2.525790        -0.063728        -1.523936
 C        -3.131985        -1.121167        -0.492332
 C        -1.619304        -1.168686        -1.030913
 O        -0.558316        -1.114167        -0.151130
 C        -0.015294         0.116376         0.032074
 O         1.115025         0.100914         0.505460
 C        -0.744622         1.374189        -0.406209
 C        -2.226204         1.261808        -0.685230
 H        -2.871488        -1.108803        -3.421103
 H        -3.757010         0.336632        -3.239141
 H        -2.066567         0.637636        -3.490673
 H        -3.221305        -0.558507         0.502677
 H        -3.991936        -1.878423        -0.825898
 H        -1.406060        -1.817735        -1.930585
 H        -0.581755         2.034009         0.424221
 H        -0.205785         1.711762        -1.344032
 H        -2.941425         1.283967         0.131156
 H        -2.579874         2.113073        -1.310015
