19
Iteration:  2235
 C        -3.024476        -0.151461        -2.937749
 C        -2.433319        -0.010470        -1.498180
 C        -3.048792        -0.943766        -0.381308
 C        -1.765559        -1.231235        -1.013621
 O        -0.440502        -1.127137        -0.396060
 C         0.020233         0.055897         0.047248
 O         1.115683         0.096981         0.548886
 C        -0.927640         1.285018        -0.003564
 C        -1.948736         1.370266        -1.160260
 H        -3.123519        -1.201393        -3.257085
 H        -4.059496         0.300847        -3.188554
 H        -2.388524         0.388379        -3.635974
 H        -3.134512        -0.507377         0.617927
 H        -3.852860        -1.571912        -0.801303
 H        -1.701893        -2.088932        -1.692753
 H        -1.529731         1.414696         0.858152
 H        -0.263346         2.052768         0.069277
 H        -2.773371         2.035044        -0.732968
 H        -1.650523         1.754661        -2.162133
