19
Iteration:   267charge 0 multiplicity 1
 C        -3.472325        -0.039284        -2.701890
 C        -2.389445        -0.055501        -1.595672
 C        -2.830604        -0.805070        -0.353815
 C        -1.543439        -1.288943        -1.192872
 O        -0.338497        -1.106046        -0.535923
 C        -0.141783         0.030912         0.173294
 O         0.904608         0.089726         0.759897
 C        -0.996109         1.226624         0.011701
 C        -1.641454         1.252977        -1.406186
 H        -4.290101        -0.785909        -2.551183
 H        -3.941183         0.902358        -2.762943
 H        -2.962749         0.001205        -3.687962
 H        -2.594111        -0.556352         0.783393
 H        -3.782430        -1.485348        -0.569950
 H        -1.544780        -2.167342        -1.791254
 H        -1.632451         1.450272         0.770513
 H        -0.217801         2.056010        -0.055418
 H        -2.226139         2.167750        -1.568824
 H        -0.902799         1.400538        -2.214986
