19
Iteration:  4589charge 0 multiplicity 1
 C        -2.936765        -0.047003        -2.993384
 C        -2.438681        -0.038512        -1.525305
 C        -3.142534        -0.865587        -0.432529
 C        -1.799078        -1.310834        -0.923461
 O        -0.594909        -1.136225        -0.257856
 C         0.027515         0.127219         0.056685
 O         1.237957         0.072884         0.289327
 C        -0.982189         1.195722         0.133936
 C        -1.836891         1.348664        -1.160979
 H        -3.762573        -0.777246        -3.058586
 H        -3.416345         0.903253        -3.242636
 H        -2.166413        -0.365570        -3.675508
 H        -3.403323        -0.334522         0.483294
 H        -4.015144        -1.457695        -0.826827
 H        -1.704969        -2.258207        -1.461190
 H        -1.557830         0.890426         1.114247
 H        -0.375373         2.197880         0.274514
 H        -2.593398         2.142774        -0.908043
 H        -1.206675         1.740395        -1.918549
