19
Iteration:  1076
 C        -3.082802        -0.040127        -2.926386
 C        -2.511673        -0.059426        -1.508486
 C        -3.029335        -1.020748        -0.515372
 C        -1.638272        -1.176125        -1.097545
 O        -0.532837        -1.144718        -0.127579
 C         0.041396         0.062956         0.059331
 O         1.155099         0.105204         0.520433
 C        -0.850689         1.271071        -0.127087
 C        -2.004891         1.342636        -1.126880
 H        -3.394140        -1.134276        -3.199965
 H        -3.987739         0.610300        -2.920628
 H        -2.453911         0.325396        -3.719318
 H        -3.053782        -0.712365         0.581833
 H        -3.841105        -1.789027        -0.804066
 H        -1.442999        -1.970950        -1.740492
 H        -1.377884         1.335389         0.898390
 H        -0.169979         2.148574        -0.339781
 H        -2.853037         1.971429        -0.830849
 H        -1.683105         1.869529        -2.145453
