19
Iteration:  2660charge 0 multiplicity 1
 C        -3.397099        -0.110559        -2.810696
 C        -2.505613        -0.089362        -1.589846
 C        -2.871178        -0.880150        -0.321115
 C        -1.624959        -1.147962        -1.156642
 O        -0.275251        -1.040071        -0.586477
 C         0.008049         0.030215         0.183767
 O         0.989592         0.016814         0.933081
 C        -0.986882         1.294033        -0.095168
 C        -1.801481         1.249535        -1.402713
 H        -3.914107        -1.034867        -2.850260
 H        -4.077980         0.752793        -2.911761
 H        -2.901974        -0.053304        -3.773500
 H        -2.704859        -0.385996         0.738999
 H        -3.728229        -1.571377        -0.254514
 H        -1.647268        -2.049955        -1.804055
 H        -1.678167         1.442629         0.679944
 H        -0.380932         2.148709        -0.132319
 H        -2.513373         2.146696        -1.606700
 H        -0.946253         1.411551        -2.167975
