19
Iteration:  3204charge 0 multiplicity 1
 C        -2.863015        -0.119621        -3.085198
 C        -2.423884         0.003473        -1.517827
 C        -3.089408        -0.758534        -0.391342
 C        -1.759933        -1.265434        -0.914270
 O        -0.520477        -1.205827        -0.241411
 C        -0.069515         0.063665         0.130293
 O         1.103570         0.239037         0.081693
 C        -1.099052         1.144343         0.312094
 C        -1.755620         1.300863        -1.132463
 H        -3.123995        -1.191093        -3.128292
 H        -3.773764         0.398269        -3.386026
 H        -1.894386        -0.097058        -3.743439
 H        -3.269905        -0.374278         0.629781
 H        -3.912643        -1.408896        -0.647934
 H        -1.913131        -2.232155        -1.419363
 H        -1.926885         0.852996         1.013941
 H        -0.535637         1.981788         0.569684
 H        -2.540878         2.199640        -1.072995
 H        -0.933485         1.507223        -1.935057
