19
Iteration:  4904
 C        -2.899062        -0.043720        -2.993189
 C        -2.492647        -0.006572        -1.539554
 C        -3.156072        -0.798183        -0.478820
 C        -1.773358        -1.221661        -0.886322
 O        -0.590551        -1.180663        -0.087798
 C         0.009305         0.059176         0.113832
 O         1.227358         0.159892         0.082914
 C        -1.054248         1.137655         0.213868
 C        -1.804846         1.276545        -1.188323
 H        -3.441718        -1.016248        -3.265393
 H        -3.515440         0.835908        -3.360162
 H        -2.012414        -0.005650        -3.694957
 H        -3.335049        -0.361306         0.491031
 H        -3.927588        -1.484249        -0.849567
 H        -1.701190        -2.182379        -1.490864
 H        -1.627628         0.762121         1.084305
 H        -0.496488         2.042937         0.473536
 H        -2.354082         2.164965        -1.151680
 H        -0.948973         1.326260        -1.909546
