19
Iteration:  2712charge 0 multiplicity 1
 C        -2.971210        -0.150345        -2.905250
 C        -2.457447        -0.008708        -1.520926
 C        -3.095961        -0.899248        -0.499674
 C        -1.749522        -1.203928        -0.953984
 O        -0.516745        -1.209933        -0.264153
 C        -0.004119         0.030201         0.058448
 O         1.140532         0.220614         0.382389
 C        -0.959838         1.233093         0.106226
 C        -1.877432         1.292956        -1.181049
 H        -2.960023        -1.138024        -3.428259
 H        -4.012863         0.208828        -2.934640
 H        -2.346557         0.503985        -3.626395
 H        -3.041533        -0.423801         0.543043
 H        -4.028410        -1.388488        -0.762463
 H        -1.723319        -2.005942        -1.760815
 H        -1.603415         1.398985         1.046509
 H        -0.263277         2.106821        -0.009218
 H        -2.650550         2.084474        -1.017839
 H        -1.184087         1.537729        -2.036669
