19
Iteration:  4721
 C        -3.419112        -0.118112        -2.631835
 C        -2.383610        -0.051066        -1.599081
 C        -2.802321        -0.843062        -0.221794
 C        -1.660215        -1.240484        -1.191372
 O        -0.309114        -0.976386        -0.796941
 C        -0.017826         0.118126         0.132357
 O         0.669806        -0.190953         1.069478
 C        -0.792875         1.362284        -0.210064
 C        -1.644770         1.280797        -1.464183
 H        -3.974134        -1.077258        -2.591037
 H        -4.056658         0.749008        -2.415377
 H        -3.003309         0.007621        -3.602206
 H        -2.631204        -0.305578         0.720620
 H        -3.799073        -1.245758        -0.351037
 H        -1.703337        -2.211919        -1.704471
 H        -1.431288         1.455755         0.708881
 H        -0.108049         2.281955        -0.089215
 H        -2.455620         2.047623        -1.297613
 H        -1.179619         1.453340        -2.361725
