19
Iteration:  1565charge 0 multiplicity 1
 C        -3.005018        -0.105752        -2.927605
 C        -2.506402        -0.061872        -1.515288
 C        -3.032576        -1.129882        -0.478270
 C        -1.714802        -1.150676        -1.094806
 O        -0.515546        -1.115992        -0.336178
 C         0.045513         0.118301         0.058698
 O         1.048086         0.083273         0.804865
 C        -0.632486         1.386643        -0.430937
 C        -2.165980         1.301738        -0.884293
 H        -2.783821        -1.058269        -3.454321
 H        -4.048821         0.052906        -2.964984
 H        -2.623677         0.706425        -3.459191
 H        -3.346769        -0.625065         0.415014
 H        -3.681012        -1.783384        -0.944919
 H        -1.581107        -1.934940        -1.835906
 H        -0.550327         2.223937         0.271293
 H         0.027594         1.753912        -1.338455
 H        -2.715817         1.486984        -0.073420
 H        -2.298494         1.982632        -1.680779
