19
Iteration:   527charge 0 multiplicity 1
 C        -3.015336        -0.100646        -3.050871
 C        -2.466008        -0.029361        -1.597000
 C        -3.055532        -0.691148        -0.263501
 C        -1.855951        -1.255412        -0.920378
 O        -0.482023        -1.253439        -0.406531
 C        -0.004965         0.036311         0.081392
 O         1.130626         0.296924         0.378510
 C        -1.028312         1.089250         0.143799
 C        -1.728006         1.249182        -1.163669
 H        -3.108427        -1.221899        -3.453900
 H        -4.096475         0.260237        -3.131554
 H        -2.251831         0.451547        -3.711487
 H        -2.850792        -0.274890         0.736200
 H        -3.939569        -1.363076        -0.310914
 H        -1.876535        -2.087497        -1.518723
 H        -1.720231         0.910066         0.903653
 H        -0.447752         2.040275         0.502830
 H        -2.495732         2.151618        -1.244171
 H        -0.960873         1.447966        -1.938285
