19
Iteration:  2863
 C        -2.769422        -0.102823        -2.963982
 C        -2.401881        -0.061699        -1.516716
 C        -3.279028        -0.885081        -0.624695
 C        -1.698988        -1.232862        -0.895930
 O        -0.607891        -1.179340        -0.004395
 C        -0.016537         0.026157         0.142885
 O         1.138452         0.228883        -0.046901
 C        -0.956249         1.191236         0.171107
 C        -1.861122         1.347640        -1.042814
 H        -2.814626        -1.190199        -3.177592
 H        -3.751008         0.327896        -3.002145
 H        -2.210659         0.534551        -3.661598
 H        -3.449517        -0.591766         0.389115
 H        -3.969837        -1.537259        -1.149428
 H        -1.693799        -2.277425        -1.304888
 H        -1.584613         1.287290         1.131738
 H        -0.260208         2.021010         0.251786
 H        -2.850545         1.952872        -0.897009
 H        -1.325935         1.877210        -1.854540
