19
Iteration:  4524
 C        -2.791564        -0.107114        -2.997520
 C        -2.401487        -0.061855        -1.557531
 C        -3.287229        -0.755291        -0.493073
 C        -1.779394        -1.245067        -0.893642
 O        -0.606268        -1.153689        -0.197710
 C         0.027722         0.097977         0.105702
 O         1.205519         0.132248        -0.009187
 C        -1.032207         1.158933         0.357091
 C        -1.778661         1.289543        -1.066413
 H        -3.274737        -1.097102        -3.128411
 H        -3.581056         0.627656        -3.202586
 H        -2.045845         0.068337        -3.715768
 H        -3.571118        -0.328350         0.469848
 H        -4.126532        -1.420426        -0.743410
 H        -1.772334        -2.174701        -1.500620
 H        -1.749741         0.810974         1.168067
 H        -0.544697         2.187763         0.606599
 H        -2.531528         2.053696        -1.130459
 H        -1.093377         1.676331        -1.829498
