19
Iteration:   794charge 0 multiplicity 1
 C        -3.028799         0.260436        -2.843762
 C        -2.575600        -0.037688        -1.326849
 C        -2.970350        -1.266086        -0.567484
 C        -1.672003        -1.346934        -1.122938
 O        -0.553856        -1.182173        -0.260640
 C         0.052653         0.072256        -0.091178
 O         0.675686         0.366980         0.908477
 C        -0.432378         1.206323        -0.908065
 C        -1.929870         1.224961        -0.647581
 H        -2.965539        -0.528081        -3.472414
 H        -3.987908         0.694571        -2.699765
 H        -2.464925         1.047928        -3.362688
 H        -3.206992        -1.389944         0.597183
 H        -3.725896        -2.014103        -1.031863
 H        -1.518441        -1.936601        -1.963879
 H         0.165061         2.103220        -0.502180
 H        -0.304011         0.998984        -2.098621
 H        -2.226187         1.175634         0.496641
 H        -2.274705         2.122874        -1.067270
