19
Iteration:   346charge 0 multiplicity 1
 C        -3.349211        -0.219841        -2.765931
 C        -2.404521         0.000036        -1.555505
 C        -2.792863        -0.848649        -0.295971
 C        -1.685390        -1.258770        -1.176151
 O        -0.365491        -1.069064        -0.640877
 C        -0.050883         0.033374         0.070967
 O         0.799131        -0.021860         0.940403
 C        -0.718038         1.330272        -0.176936
 C        -1.850873         1.368630        -1.268578
 H        -3.409193        -1.201437        -3.141625
 H        -4.361284         0.156312        -2.578426
 H        -2.910709         0.269685        -3.675348
 H        -2.555427        -0.372885         0.594087
 H        -3.832722        -1.038570        -0.303646
 H        -1.662426        -2.177566        -1.810622
 H        -1.145860         1.642429         0.759102
 H         0.119923         2.165135        -0.347544
 H        -2.679694         1.961164        -0.853566
 H        -1.501249         1.770087        -2.266928
