19
Iteration:   497
 C        -3.024562        -0.185245        -2.919142
 C        -2.438608        -0.046322        -1.534510
 C        -3.160016        -0.817494        -0.429536
 C        -1.764993        -1.220234        -0.934065
 O        -0.457338        -1.073352        -0.387377
 C        -0.005593         0.107241         0.113290
 O         1.169278         0.006237         0.426766
 C        -0.941927         1.267907         0.032094
 C        -1.837348         1.333573        -1.164191
 H        -3.195815        -1.239763        -3.061770
 H        -3.966861         0.301096        -3.036455
 H        -2.460253         0.352829        -3.708549
 H        -3.220218        -0.520580         0.599465
 H        -3.927082        -1.452610        -0.725926
 H        -1.692808        -2.143143        -1.590619
 H        -1.640091         1.182868         0.852872
 H        -0.462885         2.096873         0.206216
 H        -2.631346         2.064997        -0.974714
 H        -1.330572         1.744230        -2.012465
