19
Iteration:   233charge 0 multiplicity 1
 C        -3.250592        -0.155212        -2.883039
 C        -2.499888        -0.021364        -1.518185
 C        -3.023889        -0.854708        -0.349537
 C        -1.732300        -1.237881        -1.116167
 O        -0.421991        -1.122626        -0.494638
 C         0.108528         0.098912         0.009166
 O         1.064316         0.040264         0.768095
 C        -0.878464         1.270820        -0.002997
 C        -1.840157         1.362133        -1.273854
 H        -3.540730        -1.196592        -3.232817
 H        -4.043283         0.534597        -2.906928
 H        -2.501288         0.031283        -3.666674
 H        -2.914917        -0.507628         0.780664
 H        -3.987000        -1.481646        -0.458039
 H        -1.730175        -2.093415        -1.849563
 H        -1.347661         1.224425         0.900292
 H        -0.280528         2.174677         0.009073
 H        -2.586411         2.144893        -1.091507
 H        -1.161602         1.520910        -2.094297
