19
Iteration:  2515charge 0 multiplicity 1
 C        -3.363575        -0.143871        -2.767679
 C        -2.532763        -0.022687        -1.510079
 C        -2.777646        -0.952296        -0.308783
 C        -1.615162        -1.252937        -1.242877
 O        -0.289196        -1.062895        -0.636621
 C        -0.042871         0.055301         0.110350
 O         0.693375         0.050334         1.075462
 C        -0.686912         1.342470        -0.307395
 C        -1.872762         1.337843        -1.273833
 H        -3.548164        -1.207601        -3.090684
 H        -4.349082         0.196066        -2.608345
 H        -2.937444         0.530343        -3.554734
 H        -2.426886        -0.656219         0.661626
 H        -3.638053        -1.634942        -0.197194
 H        -1.495607        -2.019841        -1.940861
 H        -0.808176         1.923895         0.507246
 H         0.365447         1.555280        -0.695387
 H        -2.607348         2.181371        -0.983163
 H        -1.550060         1.553379        -2.359201
