19
Iteration:    72charge 0 multiplicity 1
 C        -2.865185        -0.086194        -3.020753
 C        -2.359205         0.018844        -1.572580
 C        -3.104704        -0.795955        -0.389314
 C        -1.795164        -1.244968        -0.841195
 O        -0.486776        -1.251838        -0.148612
 C        -0.070423         0.019393         0.101996
 O         1.123891         0.167442         0.105213
 C        -1.075458         1.167014         0.104349
 C        -1.850217         1.371003        -1.141000
 H        -3.191233        -1.111218        -3.174437
 H        -3.676019         0.647131        -3.094821
 H        -2.119590        -0.143693        -3.819600
 H        -3.308312        -0.151477         0.547294
 H        -4.003291        -1.403427        -0.540607
 H        -1.747568        -2.066363        -1.573111
 H        -1.754282         0.935943         1.093218
 H        -0.444815         2.165917         0.232604
 H        -2.637251         2.008740        -0.818000
 H        -1.085702         1.663824        -1.914598
