19
Iteration:  3019charge 0 multiplicity 1
 C        -3.497441        -0.153367        -2.552865
 C        -2.415609        -0.066655        -1.514154
 C        -2.726754        -0.852579        -0.294828
 C        -1.560209        -1.238928        -1.189721
 O        -0.192952        -0.976196        -0.846598
 C         0.040852         0.080361         0.086704
 O         0.441734        -0.109437         1.196587
 C        -0.736415         1.366739        -0.313324
 C        -1.696461         1.287074        -1.472878
 H        -3.849891        -1.171050        -2.684631
 H        -4.356470         0.418459        -2.198067
 H        -3.115202         0.152482        -3.596103
 H        -2.401675        -0.555045         0.747635
 H        -3.697100        -1.359989        -0.231785
 H        -1.485537        -2.059371        -1.937109
 H        -1.480478         1.545343         0.565787
 H        -0.042796         2.192255        -0.361794
 H        -2.420589         2.310537        -1.208386
 H        -1.249676         1.407081        -2.532491
