19
Iteration:  2608charge 0 multiplicity 1
 C        -3.450079        -0.159899        -2.591177
 C        -2.486281        -0.056186        -1.462170
 C        -2.631916        -0.905346        -0.283534
 C        -1.526267        -1.230369        -1.260902
 O        -0.199497        -1.024169        -0.751518
 C        -0.106597         0.136668         0.156158
 O         0.556910        -0.153065         1.140042
 C        -0.761422         1.423848        -0.293808
 C        -1.766505         1.331808        -1.535607
 H        -4.136885        -0.999309        -2.441648
 H        -4.188524         0.742531        -2.629925
 H        -3.035253        -0.151795        -3.603586
 H        -2.437576        -0.627967         0.800720
 H        -3.526577        -1.519873        -0.344956
 H        -1.678740        -2.094993        -1.896938
 H        -1.476556         1.814456         0.629925
 H         0.009697         2.177477        -0.478340
 H        -2.458946         2.098853        -1.423393
 H        -1.261559         1.490701        -2.422483
