19
Iteration:  3560
 C        -3.181552        -0.015428        -2.952063
 C        -2.511612        -0.004299        -1.535601
 C        -3.022686        -0.990582        -0.450566
 C        -1.702433        -1.168407        -1.175060
 O        -0.475065        -1.072181        -0.370823
 C         0.010262         0.042214         0.201430
 O         1.068120        -0.008437         0.815723
 C        -0.648284         1.246812        -0.392560
 C        -2.037145         1.265697        -0.987974
 H        -3.515443        -0.925152        -3.409042
 H        -3.990779         0.768030        -3.064682
 H        -2.467604         0.441628        -3.569845
 H        -2.888084        -0.514990         0.521635
 H        -3.952421        -1.634601        -0.314623
 H        -1.699752        -2.025236        -1.839915
 H        -0.480704         2.032910         0.416808
 H         0.104255         1.437662        -1.213647
 H        -2.661740         1.720796        -0.127325
 H        -2.037050         2.055807        -1.850392
