19
Iteration:  1290charge 0 multiplicity 1
 C        -3.051897         0.002160        -2.923953
 C        -2.549066        -0.000835        -1.477552
 C        -2.928249        -1.104187        -0.463753
 C        -1.680066        -1.219957        -1.152712
 O        -0.469880        -1.142461        -0.378778
 C        -0.032581         0.027241         0.120164
 O         0.869987         0.204898         0.897407
 C        -0.547628         1.311435        -0.673149
 C        -2.096861         1.236305        -0.819217
 H        -3.114075        -1.069868        -3.236690
 H        -4.057407         0.429058        -2.957880
 H        -2.337205         0.710017        -3.412055
 H        -2.840820        -0.642573         0.604292
 H        -3.694661        -1.913982        -0.691167
 H        -1.547450        -1.955044        -1.901876
 H        -0.234708         2.180126        -0.100063
 H        -0.156079         1.246048        -1.634602
 H        -2.506884         1.411247         0.266987
 H        -2.505144         2.166797        -1.393181
