19
Iteration:  3532
 C        -3.193255        -0.037131        -2.835721
 C        -2.478116         0.055964        -1.450295
 C        -3.016855        -0.984734        -0.524713
 C        -1.672660        -1.255509        -1.105502
 O        -0.406717        -1.158895        -0.466327
 C         0.031470         0.037134         0.029001
 O         0.814099        -0.020741         0.967314
 C        -0.499120         1.380132        -0.639355
 C        -2.008846         1.361010        -0.839227
 H        -3.255402        -1.100661        -3.159151
 H        -4.165505         0.395574        -2.944930
 H        -2.532609         0.502559        -3.621777
 H        -3.297468        -0.747799         0.512745
 H        -3.757332        -1.624401        -0.937340
 H        -1.724690        -2.158255        -1.676419
 H        -0.258181         2.055465         0.200395
 H         0.070593         1.699069        -1.502857
 H        -2.435623         1.596471         0.104666
 H        -2.337173         2.155438        -1.441835
