19
Iteration:  1968
 C        -3.119149         0.017864        -2.835035
 C        -2.511693         0.006241        -1.424164
 C        -3.003012        -1.220421        -0.645705
 C        -1.537577        -1.193718        -1.126367
 O        -0.610677        -1.026653        -0.120087
 C         0.005918         0.134132         0.055207
 O         0.936577         0.120157         0.790482
 C        -0.581905         1.259334        -0.643146
 C        -2.067352         1.244296        -0.855085
 H        -3.537769        -0.982456        -3.224220
 H        -3.989993         0.655264        -2.965404
 H        -2.217895         0.192330        -3.511831
 H        -3.039672        -1.196215         0.467587
 H        -3.674733        -1.932147        -1.179263
 H        -1.165879        -1.695782        -2.020571
 H        -0.055237         2.170092        -0.336676
 H        -0.021128         1.324298        -1.733373
 H        -2.635296         1.529733         0.106305
 H        -2.331848         2.056396        -1.465409
