19
Iteration:  2725charge 0 multiplicity 1
 C        -2.898395        -0.083357        -3.004708
 C        -2.487771        -0.048078        -1.513035
 C        -3.130299        -0.875694        -0.410770
 C        -1.705828        -1.240978        -0.993346
 O        -0.526357        -1.172309        -0.146576
 C        -0.043419         0.069661         0.091708
 O         1.158652         0.153249         0.234130
 C        -0.996590         1.230305         0.052426
 C        -1.888972         1.335881        -1.110601
 H        -2.796150        -1.122954        -3.228827
 H        -3.894487         0.282952        -3.265111
 H        -2.205980         0.552746        -3.600220
 H        -3.421181        -0.521694         0.628493
 H        -3.729042        -1.792726        -0.693156
 H        -1.578969        -2.172365        -1.536910
 H        -1.513749         1.009850         0.967932
 H        -0.403767         2.082901         0.239561
 H        -2.711510         2.176270        -1.079295
 H        -1.268312         1.744915        -2.026136
