19
Iteration:  4800
 C        -3.396337        -0.055646        -2.728964
 C        -2.414779        -0.108650        -1.591600
 C        -2.943857        -0.855214        -0.426093
 C        -1.634839        -1.265325        -1.107495
 O        -0.350345        -1.061139        -0.608827
 C        -0.056760         0.033299         0.161974
 O         0.892396        -0.067430         0.942537
 C        -0.772593         1.454722        -0.164339
 C        -1.766596         1.265051        -1.313364
 H        -4.006107        -0.934633        -2.791379
 H        -4.130337         0.745085        -2.566880
 H        -2.997910         0.096108        -3.718257
 H        -2.939062        -0.352540         0.546374
 H        -3.713738        -1.619351        -0.610117
 H        -1.608831        -2.192656        -1.730504
 H        -1.001814         1.920527         0.858951
 H         0.165083         2.024777        -0.479398
 H        -2.563342         2.003304        -1.450537
 H        -1.266873         1.328347        -2.204224
