19
Iteration:  3963charge 0 multiplicity 1
 C        -3.061707         0.067630        -2.949731
 C        -2.515779        -0.052391        -1.485739
 C        -3.075914        -1.105355        -0.469581
 C        -1.731827        -1.222707        -1.124239
 O        -0.524881        -1.090584        -0.264909
 C         0.040254         0.101072         0.058958
 O         0.997457        -0.035248         0.805896
 C        -0.546771         1.374298        -0.602822
 C        -2.061382         1.295985        -0.823619
 H        -2.993517        -0.806642        -3.603653
 H        -4.098373         0.210980        -2.738590
 H        -2.591169         0.913127        -3.574993
 H        -3.024784        -0.826088         0.591100
 H        -3.763033        -1.908168        -0.662518
 H        -1.681287        -2.082068        -1.806414
 H        -0.351136         2.384763        -0.131819
 H         0.083057         1.505621        -1.538826
 H        -2.564172         1.540792         0.220692
 H        -2.364611         2.158867        -1.487452
