19
Iteration:  1087
 C        -3.138066        -0.088531        -2.940477
 C        -2.513750        -0.015012        -1.538483
 C        -3.046578        -0.961005        -0.462836
 C        -1.619889        -1.234807        -1.072401
 O        -0.519016        -1.163919        -0.275511
 C         0.025351         0.041036         0.098461
 O         1.150609         0.165283         0.567578
 C        -0.818299         1.296249        -0.083365
 C        -1.970594         1.285573        -1.147145
 H        -3.414278        -1.198542        -3.274403
 H        -4.139458         0.389153        -3.004430
 H        -2.438219         0.329470        -3.655718
 H        -3.214448        -0.498902         0.595291
 H        -3.948671        -1.600547        -0.832746
 H        -1.489763        -1.962745        -1.810992
 H        -1.332692         1.375158         0.978874
 H        -0.119214         2.193099         0.122540
 H        -2.743357         1.926945        -0.709342
 H        -1.499457         1.728071        -2.175681
