19
Iteration:  3054
 C        -3.489031        -0.154458        -2.682357
 C        -2.460334        -0.083430        -1.578247
 C        -2.582329        -0.860813        -0.203132
 C        -1.584830        -1.198362        -1.193569
 O        -0.253101        -0.968801        -0.839321
 C        -0.106318         0.041892         0.191095
 O         0.512622        -0.093155         1.182807
 C        -0.713026         1.327287        -0.316740
 C        -1.754790         1.273230        -1.406600
 H        -3.557834        -1.138201        -3.150393
 H        -4.514867         0.114071        -2.309914
 H        -3.322191         0.606936        -3.414730
 H        -2.140562        -0.329427         0.599169
 H        -3.408881        -1.583812        -0.039134
 H        -1.727611        -2.120396        -1.907085
 H        -0.973743         2.161890         0.401029
 H         0.248952         1.856016        -0.601506
 H        -2.469878         2.342763        -1.294493
 H        -1.228086         1.516142        -2.349699
