19
Iteration:  2676
 C        -3.326533        -0.173116        -2.892159
 C        -2.478709        -0.037793        -1.620553
 C        -2.911046        -0.870012        -0.377963
 C        -1.644513        -1.194714        -1.067258
 O        -0.388582        -1.046099        -0.454900
 C         0.020110         0.116714         0.140181
 O         1.042685         0.027464         0.754838
 C        -0.955542         1.245448        -0.015210
 C        -1.782174         1.284242        -1.340713
 H        -3.773948        -1.219232        -3.007382
 H        -4.227791         0.545000        -2.786317
 H        -2.781390         0.204715        -3.799229
 H        -2.970449        -0.369311         0.526095
 H        -3.719016        -1.572727        -0.552423
 H        -1.598629        -2.140115        -1.588553
 H        -1.658685         1.158248         1.017868
 H        -0.350467         2.215988         0.100684
 H        -2.410064         2.111496        -1.253026
 H        -1.247179         1.501345        -2.222391
