19
Iteration:  1377charge 0 multiplicity 1
 C        -2.977365         0.205546        -2.816992
 C        -2.550795        -0.067305        -1.426383
 C        -3.059328        -1.261191        -0.771557
 C        -1.596560        -1.236224        -1.040173
 O        -0.654180        -1.036219         0.042900
 C         0.016920         0.126918         0.014365
 O         1.032696         0.223535         0.703358
 C        -0.609304         1.227043        -0.866892
 C        -2.111390         1.145054        -0.677416
 H        -2.974329        -0.690609        -3.468207
 H        -3.937100         0.681374        -2.887095
 H        -2.268850         0.853882        -3.423691
 H        -3.442643        -1.373443         0.329156
 H        -3.610245        -2.009850        -1.499492
 H        -1.150436        -1.940993        -1.753603
 H        -0.113019         2.189227        -0.499658
 H        -0.145253         1.115689        -1.899045
 H        -2.445845         0.950321         0.363645
 H        -2.546409         2.142412        -1.009315
