19
Iteration:  4906charge 0 multiplicity 1
 C        -2.875348        -0.046929        -2.973934
 C        -2.496980         0.018454        -1.540748
 C        -3.154228        -0.805370        -0.481318
 C        -1.775933        -1.217001        -0.890815
 O        -0.592126        -1.188818        -0.079177
 C         0.018548         0.050565         0.115572
 O         1.218887         0.163592         0.073196
 C        -1.060666         1.131355         0.209530
 C        -1.815906         1.269468        -1.205214
 H        -3.442762        -0.989660        -3.251083
 H        -3.467075         0.885706        -3.291318
 H        -2.011843        -0.021100        -3.657878
 H        -3.299675        -0.389441         0.509563
 H        -3.884681        -1.519628        -0.823025
 H        -1.752299        -2.176943        -1.449399
 H        -1.638629         0.772787         0.995641
 H        -0.518172         2.047850         0.488691
 H        -2.407076         2.213841        -1.141251
 H        -0.902979         1.361823        -1.935491
