19
Iteration:  2276
 C        -2.926843        -0.054784        -2.991083
 C        -2.429483        -0.047693        -1.553610
 C        -3.136380        -1.070250        -0.540864
 C        -1.714333        -1.253803        -0.992719
 O        -0.621582        -1.103057        -0.047077
 C         0.023085         0.085840         0.042136
 O         1.204018         0.116859         0.273400
 C        -0.874246         1.331570        -0.021162
 C        -2.008426         1.354659        -1.034781
 H        -3.592433        -0.920158        -3.312102
 H        -3.591303         0.789873        -3.069105
 H        -2.038136         0.021008        -3.666840
 H        -3.188399        -0.980495         0.511870
 H        -3.769707        -1.834170        -0.988873
 H        -1.504243        -2.233924        -1.522299
 H        -1.289720         1.260187         1.080686
 H        -0.246764         2.267652        -0.077187
 H        -2.921702         1.807990        -0.491634
 H        -1.597973         2.043182        -1.832939
