19
Iteration:  3092
 C        -3.404085        -0.189353        -2.692325
 C        -2.408379        -0.023510        -1.543550
 C        -2.833155        -0.955508        -0.385569
 C        -1.629406        -1.168342        -1.096934
 O        -0.275361        -1.091318        -0.665916
 C        -0.030044         0.090347         0.135097
 O         0.681219        -0.070459         1.057205
 C        -0.678234         1.399516        -0.332054
 C        -1.821054         1.367988        -1.334143
 H        -3.543211        -1.255458        -2.982887
 H        -4.310297         0.283774        -2.305050
 H        -3.366111         0.532017        -3.611126
 H        -2.872252        -0.583096         0.670958
 H        -3.539292        -1.791198        -0.495599
 H        -1.641288        -1.957393        -1.812612
 H        -0.972925         1.739540         0.676045
 H         0.075150         2.108822        -0.726421
 H        -2.579601         2.259043        -1.219680
 H        -1.312875         1.579688        -2.305071
