19
Iteration:  3762charge 0 multiplicity 1
 C        -3.070838        -0.037687        -2.924628
 C        -2.419146        -0.047983        -1.540193
 C        -3.192313        -0.960946        -0.564504
 C        -1.674163        -1.239735        -1.062848
 O        -0.555278        -1.183363        -0.217005
 C        -0.030601         0.031008         0.124460
 O         1.121390         0.095420         0.448618
 C        -0.709351         1.347718        -0.097209
 C        -1.951804         1.318330        -0.992491
 H        -3.660940        -0.935266        -3.114832
 H        -3.689641         0.744641        -2.901828
 H        -2.357152         0.209094        -3.730636
 H        -3.338844        -0.496582         0.439748
 H        -3.816674        -1.804379        -0.823490
 H        -1.687998        -2.181162        -1.666140
 H        -0.822717         1.745610         0.907205
 H         0.158334         1.905715        -0.573499
 H        -2.751752         1.857475        -0.561865
 H        -1.733266         2.014526        -1.840201
