19
Iteration:  2498
 C        -3.378203        -0.156213        -2.764441
 C        -2.442713        -0.081247        -1.563376
 C        -2.864091        -0.984786        -0.378986
 C        -1.614298        -1.178519        -1.168005
 O        -0.340375        -1.062888        -0.588342
 C        -0.032695         0.062156         0.166312
 O         0.826311         0.046494         1.012870
 C        -0.682658         1.335512        -0.304474
 C        -1.878921         1.321079        -1.298143
 H        -3.593516        -1.210084        -2.917867
 H        -4.235091         0.586838        -2.588302
 H        -2.896677         0.207404        -3.665834
 H        -2.868264        -0.609239         0.670959
 H        -3.769675        -1.583703        -0.656330
 H        -1.658522        -2.107853        -1.828217
 H        -0.965018         1.863257         0.781620
 H        -0.041900         2.121786        -0.633322
 H        -2.675262         1.900143        -0.907004
 H        -1.566724         1.860284        -2.160320
