19
Iteration:  3305
 C        -2.725540        -0.020492        -2.936537
 C        -2.409244        -0.034718        -1.444330
 C        -3.149134        -1.133135        -0.655665
 C        -1.698883        -1.271072        -1.018448
 O        -0.791623        -1.126500         0.132260
 C        -0.024653         0.052868        -0.049411
 O         1.191075         0.072876         0.072257
 C        -0.787313         1.356402        -0.035864
 C        -2.088275         1.429365        -0.900333
 H        -3.219803        -1.011417        -2.996368
 H        -3.360671         0.827377        -3.195823
 H        -1.875431         0.124272        -3.634280
 H        -3.382408        -1.043996         0.357787
 H        -3.968892        -1.691579        -1.100489
 H        -1.327767        -1.885277        -1.787189
 H        -1.009194         1.214976         1.020227
 H        -0.042895         2.205269        -0.105004
 H        -2.991055         1.927001        -0.421683
 H        -1.845318         2.223468        -1.773060
