19
Iteration:  2172charge 0 multiplicity 1
 C        -3.455449        -0.088505        -2.744351
 C        -2.469751        -0.078645        -1.595712
 C        -2.816763        -0.936565        -0.376328
 C        -1.594559        -1.263745        -1.161214
 O        -0.308567        -1.025697        -0.602883
 C        -0.068265         0.093570         0.097323
 O         0.903614         0.073729         0.858587
 C        -1.017660         1.311804         0.044238
 C        -1.620800         1.245816        -1.392572
 H        -3.861184        -1.053767        -2.764919
 H        -4.179512         0.722942        -2.494960
 H        -2.914004         0.106026        -3.640205
 H        -2.789606        -0.551134         0.651726
 H        -3.754871        -1.576651        -0.497685
 H        -1.631199        -2.153924        -1.782490
 H        -1.867430         1.345418         0.762557
 H        -0.172239         2.216173         0.141867
 H        -2.177486         2.092949        -1.620483
 H        -0.871604         1.266296        -2.154868
