19
Iteration:  2306charge 0 multiplicity 1
 C        -2.886241        -0.044993        -2.985105
 C        -2.448764        -0.051599        -1.525480
 C        -3.162036        -1.057746        -0.641759
 C        -1.702559        -1.232229        -0.980002
 O        -0.657358        -1.071761         0.106071
 C         0.033177         0.097930         0.047090
 O         1.252438         0.096487         0.088428
 C        -0.979995         1.322826         0.055457
 C        -1.979996         1.266769        -0.988190
 H        -3.556974        -0.864354        -3.303961
 H        -3.396841         0.843352        -3.262704
 H        -1.963321         0.049547        -3.601955
 H        -3.278053        -0.981071         0.425750
 H        -3.791621        -1.697053        -1.282516
 H        -1.326740        -2.163002        -1.482493
 H        -1.191653         1.297786         1.132907
 H        -0.412310         2.421739         0.051248
 H        -2.759318         1.851536        -0.652787
 H        -1.551816         1.820509        -1.769643
