19
Iteration:  3756
 C        -3.049599        -0.037118        -2.896029
 C        -2.389767        -0.051471        -1.581904
 C        -3.186669        -0.965231        -0.561680
 C        -1.710202        -1.220396        -1.040462
 O        -0.551870        -1.168543        -0.206801
 C        -0.051382         0.019637         0.131985
 O         1.121462         0.105095         0.405199
 C        -0.712151         1.300040        -0.061400
 C        -1.936821         1.354878        -1.016261
 H        -3.702507        -0.905855        -3.110654
 H        -3.863795         0.852945        -2.926116
 H        -2.312933        -0.044199        -3.721055
 H        -3.341193        -0.626242         0.461499
 H        -3.724208        -1.899216        -0.831811
 H        -1.708188        -2.076689        -1.673124
 H        -0.930463         1.679048         0.955279
 H         0.161069         1.974155        -0.410319
 H        -2.848736         1.899373        -0.576051
 H        -1.623464         1.941027        -1.883225
