19
Iteration:  4559charge 0 multiplicity 1
 C        -2.724740        -0.083837        -2.993799
 C        -2.432691        -0.027156        -1.511694
 C        -3.182023        -0.751070        -0.362535
 C        -1.778527        -1.229819        -0.944041
 O        -0.583676        -1.308411        -0.222535
 C        -0.052781         0.041042         0.035218
 O         1.151938         0.214596         0.090861
 C        -1.047864         1.149241         0.246391
 C        -1.876397         1.358716        -1.126318
 H        -3.614171        -0.782428        -3.095229
 H        -3.164838         0.870513        -3.361819
 H        -2.002523        -0.517239        -3.628303
 H        -3.024772        -0.176025         0.535161
 H        -3.997440        -1.423828        -0.574412
 H        -1.917194        -2.051760        -1.588269
 H        -1.514657         0.939535         1.191376
 H        -0.437178         2.027259         0.451302
 H        -2.545679         2.176867        -1.016867
 H        -0.958564         1.536927        -1.785882
