19
Iteration:  2016
 C        -3.303123        -0.023715        -2.864292
 C        -2.478643        -0.106412        -1.500169
 C        -2.942675        -1.072315        -0.561419
 C        -1.569881        -1.242542        -1.176489
 O        -0.432975        -1.072992        -0.337654
 C        -0.028203         0.112266         0.123236
 O         0.900647         0.129688         0.919880
 C        -0.574312         1.344825        -0.453353
 C        -1.982804         1.210591        -1.009749
 H        -3.953136        -0.802413        -3.080992
 H        -4.024754         0.718140        -2.540199
 H        -2.840131         0.215559        -3.737568
 H        -2.964525        -0.717259         0.485979
 H        -3.714238        -1.700277        -0.932212
 H        -1.575089        -2.199506        -1.700288
 H        -0.482478         2.164757         0.285338
 H         0.053008         1.831415        -1.259855
 H        -2.670618         1.753212        -0.414618
 H        -1.974867         1.740419        -1.950957
