19
Iteration:  1024charge 0 multiplicity 1
 C        -2.907851        -0.040356        -2.989504
 C        -2.453604        -0.073394        -1.488451
 C        -3.143417        -1.133699        -0.636664
 C        -1.701457        -1.266933        -0.977647
 O        -0.726850        -1.059788        -0.018010
 C         0.065323         0.079058         0.045568
 O         1.271434         0.126845         0.266780
 C        -0.796086         1.377876        -0.055164
 C        -2.083932         1.314685        -0.930104
 H        -3.241036        -1.067046        -3.184225
 H        -3.719367         0.717936        -3.136844
 H        -2.017747        -0.026469        -3.729001
 H        -3.468082        -0.881689         0.404957
 H        -3.858824        -1.762414        -1.223845
 H        -1.277697        -1.947743        -1.737103
 H        -1.015898         1.781698         0.953466
 H        -0.150922         1.962971        -0.592243
 H        -3.085233         1.675391        -0.430902
 H        -1.848128         1.975379        -1.765352
