19
Iteration:  4634
 C        -3.185499        -0.030838        -2.862126
 C        -2.441493        -0.008286        -1.553126
 C        -3.031778        -0.924142        -0.470033
 C        -1.757191        -1.248347        -1.034434
 O        -0.516589        -1.144552        -0.295273
 C         0.006964        -0.007059         0.114289
 O         1.147150         0.028133         0.603382
 C        -0.853565         1.292433        -0.076964
 C        -1.832999         1.406252        -1.284874
 H        -3.340892        -1.092332        -3.178278
 H        -4.213756         0.344711        -2.693112
 H        -2.686895         0.415357        -3.674523
 H        -2.959519        -0.671770         0.606582
 H        -3.851581        -1.563283        -0.817111
 H        -1.672480        -2.138485        -1.626553
 H        -1.558496         1.293335         0.859403
 H        -0.096320         2.186347         0.040342
 H        -2.561351         2.208132        -1.167912
 H        -1.218206         1.703779        -2.119564
