19
Iteration:  1903
 C        -2.698527         0.277890        -2.888534
 C        -2.452445        -0.136918        -1.445677
 C        -3.244421        -1.185402        -0.644704
 C        -1.732248        -1.324082        -0.944325
 O        -0.630168        -1.115443        -0.034745
 C         0.029073         0.142773        -0.036971
 O         1.054539         0.296305         0.616774
 C        -0.667814         1.259545        -0.827407
 C        -2.165563         1.081426        -0.621447
 H        -2.140267        -0.452938        -3.534281
 H        -3.739825         0.335075        -3.119227
 H        -2.161053         1.163919        -2.965912
 H        -3.489432        -0.895123         0.425047
 H        -3.863082        -2.053906        -0.951610
 H        -1.528766        -2.006326        -1.784860
 H        -0.170991         2.252392        -0.808410
 H        -0.333520         1.118894        -1.998743
 H        -2.506957         1.106082         0.445513
 H        -2.902332         1.745639        -0.944981
