19
Iteration:  1548
 C        -3.094410        -0.121123        -2.945907
 C        -2.546475        -0.048482        -1.505992
 C        -3.150872        -1.059593        -0.614230
 C        -1.642348        -1.281766        -1.113011
 O        -0.488199        -1.126500        -0.216220
 C         0.023535         0.104913         0.068525
 O         1.073315         0.132655         0.722276
 C        -0.632700         1.424705        -0.356936
 C        -2.045835         1.335322        -0.908487
 H        -2.908327        -1.146153        -3.279544
 H        -4.238561        -0.072707        -3.076356
 H        -2.616962         0.582433        -3.727655
 H        -2.884527        -0.984486         0.445081
 H        -3.945330        -1.788482        -0.988088
 H        -1.355924        -2.058666        -1.840660
 H        -0.524506         1.932797         0.613557
 H        -0.015982         1.965648        -1.040087
 H        -2.765753         1.589268         0.062269
 H        -2.259196         2.222347        -1.593602
