19
Iteration:  1681charge 0 multiplicity 1
 C        -3.229697         0.221388        -2.799641
 C        -2.541140        -0.092125        -1.455009
 C        -2.932176        -1.319112        -0.691121
 C        -1.509186        -1.231948        -1.176967
 O        -0.613761        -1.139535        -0.072196
 C        -0.007103         0.104351         0.082194
 O         0.840961         0.311286         0.935571
 C        -0.463209         1.218661        -0.934324
 C        -2.009286         1.246915        -0.793939
 H        -3.591926        -0.697260        -3.225157
 H        -4.055329         0.929610        -2.592317
 H        -2.506845         0.822758        -3.427850
 H        -3.088580        -1.451267         0.406550
 H        -3.432592        -2.110836        -1.236982
 H        -1.241003        -1.899841        -1.961454
 H        -0.009741         2.088470        -0.381188
 H        -0.102224         1.083626        -1.891162
 H        -2.096720         1.311938         0.326579
 H        -2.443136         1.989122        -1.433685
