19
Iteration:  3111
 C        -3.376190        -0.121796        -2.745350
 C        -2.482862        -0.012243        -1.537865
 C        -2.838791        -0.937756        -0.365234
 C        -1.603273        -1.251859        -1.255143
 O        -0.367473        -1.122527        -0.522102
 C        -0.040906         0.086736         0.171290
 O         0.840416         0.026967         0.954883
 C        -0.747445         1.348436        -0.239217
 C        -1.822420         1.347432        -1.339877
 H        -3.616241        -1.159840        -2.997835
 H        -4.340393         0.462036        -2.689495
 H        -2.757034         0.192040        -3.517666
 H        -2.694483        -0.702575         0.700932
 H        -3.766450        -1.445565        -0.416578
 H        -1.555779        -2.086747        -1.874343
 H        -1.138429         1.761492         0.638067
 H         0.229795         1.837194        -0.596273
 H        -2.733979         2.074702        -0.989356
 H        -1.473264         1.672943        -2.289708
