19
Iteration:  1923charge 0 multiplicity 1
 C        -2.761305         0.205488        -2.915545
 C        -2.566903        -0.086867        -1.487567
 C        -3.170109        -1.221715        -0.581342
 C        -1.697902        -1.273448        -0.972699
 O        -0.595545        -1.080434        -0.069620
 C         0.027471         0.100040        -0.097459
 O         0.943794         0.314800         0.680669
 C        -0.627024         1.211394        -0.830836
 C        -2.068064         1.095406        -0.608707
 H        -2.425328        -0.598498        -3.578256
 H        -3.799666         0.323534        -2.968378
 H        -2.143568         1.102442        -3.092611
 H        -3.602507        -0.917817         0.384689
 H        -3.852277        -1.787485        -1.148711
 H        -1.465657        -2.162814        -1.625751
 H        -0.191224         2.152826        -0.459215
 H        -0.161510         1.307923        -1.882225
 H        -2.313709         0.991523         0.471846
 H        -2.484081         2.064849        -0.785591
