19
Iteration:  4273
 C        -3.338607        -0.061460        -2.839994
 C        -2.572489         0.001973        -1.495789
 C        -2.834408        -0.933850        -0.315718
 C        -1.674649        -1.221693        -1.248439
 O        -0.365450        -1.203225        -0.622701
 C        -0.044176         0.013746         0.150514
 O         0.879481         0.067763         0.984551
 C        -0.697934         1.275632        -0.231218
 C        -1.856331         1.354892        -1.174466
 H        -3.486596        -1.123690        -3.271142
 H        -4.319974         0.540177        -2.706520
 H        -2.778833         0.615941        -3.554074
 H        -2.495815        -0.501137         0.621293
 H        -3.736959        -1.583476        -0.325168
 H        -1.895345        -1.940346        -2.030595
 H        -0.692265         1.930504         0.611807
 H         0.060988         1.811899        -0.961672
 H        -2.404804         2.218639        -0.944953
 H        -1.477309         1.624573        -2.207620
