19
Iteration:  4888charge 0 multiplicity 1
 C        -3.040169        -0.127187        -3.130976
 C        -2.398258        -0.061696        -1.590280
 C        -3.245959        -0.803698        -0.470256
 C        -1.821460        -1.292176        -0.938167
 O        -0.564885        -1.107769        -0.194206
 C         0.021822         0.090683         0.058072
 O         1.201379         0.135351         0.216168
 C        -0.928656         1.246796         0.285502
 C        -1.680103         1.226317        -1.044739
 H        -3.328092        -1.112495        -3.338261
 H        -3.869494         0.542756        -3.116122
 H        -2.284168         0.174061        -3.845660
 H        -3.305182        -0.218641         0.472183
 H        -4.125075        -1.398246        -0.726129
 H        -1.775707        -2.207276        -1.457196
 H        -1.712092         1.179416         1.109686
 H        -0.400058         2.209971         0.387498
 H        -2.547368         2.007219        -1.014725
 H        -0.939554         1.618037        -1.708734
