19
Iteration:   274charge 0 multiplicity 1
 C        -3.469116        -0.004548        -2.680960
 C        -2.384159        -0.074691        -1.598181
 C        -2.819953        -0.877734        -0.352793
 C        -1.592347        -1.306866        -1.212722
 O        -0.348424        -1.119905        -0.590784
 C        -0.104313         0.048074         0.163853
 O         0.912284         0.109513         0.827533
 C        -1.004895         1.286301        -0.051627
 C        -1.607456         1.238429        -1.391858
 H        -4.298118        -0.740588        -2.517526
 H        -4.053040         0.959118        -2.589146
 H        -3.126592        -0.189666        -3.689414
 H        -2.760741        -0.363719         0.609130
 H        -3.790579        -1.293167        -0.518913
 H        -1.453003        -2.282212        -1.800890
 H        -1.706643         1.467645         1.025035
 H        -0.319196         2.068891         0.041502
 H        -2.188337         2.147011        -1.636414
 H        -0.754837         1.267700        -2.073503
