19
Iteration:  1718
 C        -3.023647         0.012751        -2.884813
 C        -2.535931        -0.063484        -1.428416
 C        -3.044408        -1.132752        -0.570823
 C        -1.630159        -1.227472        -1.132998
 O        -0.546642        -1.084872        -0.250874
 C         0.002815         0.149897         0.065209
 O         0.952743         0.165674         0.844075
 C        -0.562873         1.342393        -0.685030
 C        -2.074039         1.196998        -0.805915
 H        -2.817509        -0.925609        -3.566592
 H        -4.116547         0.192115        -2.953255
 H        -2.556148         0.763460        -3.530046
 H        -3.278788        -0.932671         0.456987
 H        -3.589643        -1.976963        -0.998616
 H        -1.423532        -2.062653        -1.856856
 H        -0.383240         2.190804        -0.043101
 H        -0.003918         1.319823        -1.629639
 H        -2.519648         1.274778         0.214116
 H        -2.616331         2.115406        -1.106018
