19
Iteration:  3297
 C        -2.689932        -0.035345        -2.926929
 C        -2.398103        -0.004741        -1.410348
 C        -3.147128        -1.108475        -0.659166
 C        -1.665150        -1.326660        -0.970124
 O        -0.835602        -1.098874         0.090279
 C         0.005267         0.072736        -0.060923
 O         1.183130         0.055609         0.029536
 C        -0.831641         1.334851         0.012589
 C        -2.078742         1.460559        -0.904819
 H        -3.266559        -0.984805        -3.309547
 H        -3.554046         0.737561        -3.089665
 H        -1.854652         0.015087        -3.579800
 H        -3.372298        -0.953435         0.445717
 H        -3.908327        -1.735027        -1.242360
 H        -1.178404        -2.041062        -1.743379
 H        -1.248941         1.200923         1.018114
 H        -0.124946         2.250479        -0.027752
 H        -2.776723         1.937630        -0.338737
 H        -1.839174         2.134973        -1.864254
