19
Iteration:  1461charge 0 multiplicity 1
 C        -2.881397        -0.080346        -2.952873
 C        -2.505829        -0.085691        -1.461597
 C        -3.161435        -1.090700        -0.636515
 C        -1.663864        -1.273763        -1.035671
 O        -0.565007        -1.108995        -0.175097
 C         0.055235         0.134586         0.074030
 O         1.156243         0.166090         0.494350
 C        -0.739708         1.366256        -0.297878
 C        -2.167704         1.269090        -0.827412
 H        -3.256350        -1.070715        -3.244683
 H        -3.675119         0.722314        -3.109841
 H        -1.925795         0.069035        -3.558071
 H        -3.523948        -0.900338         0.366591
 H        -3.989398        -1.593117        -1.083154
 H        -1.326944        -1.940984        -1.824777
 H        -0.706276         2.008547         0.691801
 H        -0.126122         2.017447        -1.005590
 H        -2.919396         1.435324         0.010037
 H        -2.453641         2.050793        -1.539701
