19
Iteration:  1261
 C        -3.165403        -0.131340        -2.926396
 C        -2.559731        -0.039151        -1.468548
 C        -2.929297        -1.009776        -0.459214
 C        -1.639204        -1.274438        -1.088632
 O        -0.364156        -1.057290        -0.465733
 C         0.024418         0.087810         0.058259
 O         0.876854        -0.017063         0.952244
 C        -0.619574         1.413795        -0.495451
 C        -2.096845         1.355284        -0.928122
 H        -2.896674        -1.164683        -3.398084
 H        -4.211355         0.225361        -2.948573
 H        -2.617699         0.531997        -3.560226
 H        -3.013137        -0.642975         0.597279
 H        -3.828229        -1.631193        -0.686993
 H        -1.493373        -2.143493        -1.829757
 H        -0.505953         2.251784         0.199164
 H        -0.058034         1.744060        -1.509196
 H        -2.704068         1.738055        -0.073046
 H        -2.269988         2.036567        -1.714905
