19
Iteration:  1084
 C        -3.109872        -0.065746        -2.941075
 C        -2.531662        -0.042972        -1.519347
 C        -3.043368        -0.975048        -0.471385
 C        -1.597922        -1.204996        -1.075976
 O        -0.531684        -1.157275        -0.226312
 C         0.030929         0.031072         0.089051
 O         1.150771         0.149156         0.549299
 C        -0.826522         1.282374        -0.107417
 C        -1.982336         1.309520        -1.141439
 H        -3.443414        -1.111294        -3.199479
 H        -4.073130         0.410110        -3.032700
 H        -2.518909         0.345430        -3.694464
 H        -3.189576        -0.583549         0.515952
 H        -3.902140        -1.612961        -0.828533
 H        -1.436974        -1.955310        -1.813206
 H        -1.339303         1.377763         0.857177
 H        -0.072296         2.245067         0.068146
 H        -2.791252         1.879633        -0.804088
 H        -1.625158         1.709287        -2.071862
