19
Iteration:  4957charge 0 multiplicity 1
 C        -2.758086        -0.124546        -3.041531
 C        -2.371954        -0.076839        -1.567001
 C        -3.236920        -0.805038        -0.495554
 C        -1.779917        -1.236125        -0.954910
 O        -0.673702        -1.151411        -0.098149
 C        -0.042708         0.050775         0.142105
 O         1.186462         0.111458        -0.060575
 C        -0.973501         1.321994         0.269868
 C        -1.840674         1.256858        -0.973015
 H        -3.435856        -0.973179        -3.245508
 H        -3.147967         0.802532        -3.407478
 H        -1.853680        -0.432283        -3.610825
 H        -3.297535        -0.218842         0.416209
 H        -3.990485        -1.584238        -0.688866
 H        -1.760744        -2.210911        -1.559455
 H        -1.587281         1.392184         1.285153
 H        -0.255099         2.173807         0.293110
 H        -2.687425         1.834994        -0.632524
 H        -1.367441         1.795366        -1.731180
