19
Iteration:  3869charge 0 multiplicity 1
 C        -3.179945         0.322211        -2.834046
 C        -2.551056        -0.038513        -1.421428
 C        -2.953259        -1.302606        -0.543838
 C        -1.656293        -1.307033        -1.228488
 O        -0.612076        -1.128879        -0.178486
 C         0.081625         0.098078        -0.023680
 O         0.748121         0.250912         1.000306
 C        -0.401103         1.168605        -0.977508
 C        -1.933140         1.208734        -0.699239
 H        -3.726420        -0.462728        -3.441898
 H        -3.926836         1.197593        -2.567206
 H        -2.354473         0.767233        -3.452987
 H        -3.032323        -1.016213         0.500739
 H        -3.730481        -1.858372        -0.988152
 H        -1.357585        -2.058071        -2.003815
 H         0.179491         2.044508        -0.624896
 H        -0.096121         0.986014        -2.018911
 H        -1.901746         1.070162         0.379451
 H        -2.349884         2.169345        -1.022948
