19
Iteration:  4776charge 0 multiplicity 1
 C        -3.550810        -0.059417        -2.717154
 C        -2.473398        -0.000596        -1.600436
 C        -2.843719        -0.898384        -0.321586
 C        -1.627936        -1.222813        -1.167419
 O        -0.276483        -1.018184        -0.642173
 C         0.030360         0.077175         0.174232
 O         0.747026        -0.094397         1.098302
 C        -0.703260         1.297038        -0.253145
 C        -1.693522         1.304740        -1.471976
 H        -4.338506        -0.819887        -2.578775
 H        -4.120440         0.881471        -2.800174
 H        -3.156034        -0.260968        -3.672896
 H        -2.537149        -0.836164         0.725243
 H        -3.607804        -1.673577        -0.472231
 H        -1.556659        -2.112408        -1.883979
 H        -1.321179         1.403822         0.670571
 H         0.042064         2.143957        -0.072691
 H        -2.474271         2.149743        -1.276084
 H        -1.329239         1.537608        -2.492667
