19
Iteration:  4542
 C        -2.826657        -0.147425        -3.105351
 C        -2.456170         0.043929        -1.550369
 C        -3.142831        -0.761094        -0.422634
 C        -1.920005        -1.265500        -0.953354
 O        -0.609510        -1.184661        -0.180112
 C        -0.022441        -0.010034         0.075588
 O         1.153191         0.275020         0.030187
 C        -0.977823         1.131382         0.304979
 C        -1.725355         1.258510        -0.986308
 H        -3.406032        -0.985157        -3.429832
 H        -3.294017         0.757443        -3.520028
 H        -1.726636        -0.312737        -3.421694
 H        -3.088360        -0.293688         0.598508
 H        -4.063188        -1.332649        -0.629821
 H        -1.765970        -2.261813        -1.463232
 H        -1.746604         1.007941         1.135286
 H        -0.337081         2.023841         0.455400
 H        -2.592985         1.998565        -0.764609
 H        -1.048872         1.545396        -1.773536
