19
Iteration:   825
 C        -2.943214         0.120562        -2.821903
 C        -2.550718        -0.067608        -1.417262
 C        -3.078067        -1.094140        -0.604636
 C        -1.673687        -1.280722        -1.112301
 O        -0.523903        -1.127908        -0.268694
 C         0.056411         0.198078         0.048836
 O         0.924049         0.134319         0.876574
 C        -0.579749         1.261079        -0.839178
 C        -2.103267         1.206749        -0.701537
 H        -2.849388        -0.869429        -3.318548
 H        -4.035292         0.263555        -2.791022
 H        -2.482642         0.968735        -3.267993
 H        -3.119130        -0.949773         0.508368
 H        -3.864366        -1.674062        -1.075834
 H        -1.347709        -1.857929        -1.953469
 H        -0.161794         2.305778        -0.666248
 H        -0.314712         1.083058        -2.011410
 H        -2.339718         1.057732         0.387734
 H        -2.647795         2.029165        -0.995666
