19
Iteration:  1431
 C        -2.776698        -0.060550        -3.057959
 C        -2.530825        -0.070397        -1.507485
 C        -3.139897        -1.123355        -0.487195
 C        -1.601891        -1.168049        -1.033467
 O        -0.567426        -1.106422        -0.150449
 C        -0.024356         0.118394         0.017315
 O         1.114270         0.104325         0.512050
 C        -0.742802         1.361586        -0.421042
 C        -2.229129         1.246313        -0.683601
 H        -2.858640        -1.047671        -3.438725
 H        -3.749475         0.322701        -3.273116
 H        -2.085661         0.701454        -3.468522
 H        -3.197565        -0.548697         0.497774
 H        -4.003971        -1.830852        -0.852038
 H        -1.395688        -1.760518        -1.941188
 H        -0.609539         2.103527         0.480847
 H        -0.104072         1.663365        -1.379061
 H        -2.864689         1.286375         0.122912
 H        -2.556707         2.079522        -1.295230
