19
Iteration:  3894
 C        -3.078905         0.383426        -2.669411
 C        -2.531742        -0.079160        -1.324692
 C        -3.044869        -1.233448        -0.641617
 C        -1.604182        -1.288982        -1.232620
 O        -0.567859        -1.112764        -0.194141
 C         0.008669         0.122930        -0.009725
 O         0.706664         0.293261         0.946439
 C        -0.446002         1.090609        -1.004743
 C        -1.919054         1.143429        -0.747372
 H        -3.749232        -0.433678        -3.119332
 H        -3.763567         1.196407        -2.373955
 H        -2.281619         0.644951        -3.447632
 H        -3.007171        -1.441088         0.457566
 H        -3.706231        -1.980179        -1.223108
 H        -1.281053        -2.067728        -1.919515
 H         0.149495         1.918243        -0.807468
 H        -0.186638         0.779063        -1.912491
 H        -1.984331         1.306478         0.281461
 H        -2.256808         2.116131        -1.240912
