19
Iteration:   938charge 0 multiplicity 1
 C        -2.744406        -0.074990        -2.946203
 C        -2.453166        -0.050399        -1.492234
 C        -3.193695        -1.045444        -0.613507
 C        -1.722806        -1.191827        -0.912579
 O        -0.641880        -1.075860        -0.066998
 C         0.041176         0.029624        -0.016028
 O         1.234436         0.100945         0.271598
 C        -0.854275         1.320086        -0.187117
 C        -2.189478         1.298707        -0.852103
 H        -2.849714        -1.026704        -3.365493
 H        -3.603658         0.548374        -3.183887
 H        -1.959348         0.507683        -3.549388
 H        -3.543762        -0.786197         0.384375
 H        -3.820019        -1.934295        -0.971499
 H        -1.474059        -2.067031        -1.597384
 H        -0.852000         1.580397         0.921591
 H        -0.120179         2.229489        -0.690872
 H        -2.997397         1.738423        -0.199977
 H        -2.084784         1.964251        -1.632732
