19
Iteration:  2539charge 0 multiplicity 1
 C        -3.405359        -0.158662        -2.690525
 C        -2.431038        -0.045033        -1.500074
 C        -2.667911        -0.944201        -0.216981
 C        -1.546459        -1.188754        -1.230821
 O        -0.270755        -1.069103        -0.690549
 C        -0.041652         0.055186         0.097390
 O         0.540864        -0.109392         1.140987
 C        -0.706538         1.444228        -0.434505
 C        -1.846960         1.361606        -1.354210
 H        -3.436463        -1.113878        -3.219639
 H        -4.431919         0.099060        -2.409252
 H        -3.174019         0.687722        -3.371624
 H        -2.639702        -0.452211         0.777895
 H        -3.575621        -1.636875        -0.288633
 H        -1.537136        -2.123617        -1.841821
 H        -0.990496         2.060024         0.472737
 H         0.222117         1.908393        -0.831320
 H        -2.604985         2.065812        -1.016979
 H        -1.627705         1.648132        -2.365477
