19
Iteration:   898charge 0 multiplicity 1
 C        -2.982958        -0.031328        -3.005097
 C        -2.421160        -0.094679        -1.495334
 C        -3.082687        -1.155443        -0.647884
 C        -1.652247        -1.237865        -1.014771
 O        -0.701483        -1.048062        -0.047104
 C        -0.023925         0.144423         0.081281
 O         1.154298         0.047358         0.369957
 C        -0.689924         1.411181        -0.194334
 C        -2.068911         1.287651        -0.854534
 H        -3.586883        -0.980672        -3.210794
 H        -3.746235         0.767843        -3.092830
 H        -2.135863         0.154569        -3.641131
 H        -3.214639        -0.860352         0.366185
 H        -3.603300        -1.944371        -1.026725
 H        -1.311461        -2.017587        -1.788811
 H        -0.760723         2.069708         0.617654
 H         0.009302         1.880419        -0.765806
 H        -2.820026         1.521393        -0.153917
 H        -2.238654         2.117825        -1.744643
