19
Iteration:  1209
 C        -3.405815        -0.039332        -2.805922
 C        -2.532618        -0.046000        -1.536175
 C        -2.830734        -1.051847        -0.443524
 C        -1.534605        -1.217118        -1.281042
 O        -0.390012        -1.202802        -0.353821
 C         0.046403         0.046098         0.143535
 O         0.920086         0.080882         0.947101
 C        -0.720990         1.398131        -0.294146
 C        -1.986424         1.369492        -1.260876
 H        -3.854206        -0.987736        -3.038154
 H        -4.135225         0.778578        -2.717901
 H        -2.781838         0.029379        -3.734857
 H        -2.625803        -0.816731         0.539634
 H        -3.587851        -1.777921        -0.538180
 H        -1.550353        -2.124982        -1.994376
 H        -1.060851         1.997717         0.705751
 H        -0.008167         2.192413        -0.658679
 H        -2.708590         2.009159        -0.832690
 H        -1.809909         1.718582        -2.323384
