19
Iteration:  3697charge 0 multiplicity 1
 C        -3.005685        -0.077531        -3.011439
 C        -2.438772        -0.034902        -1.532283
 C        -3.150626        -0.782978        -0.348605
 C        -1.820696        -1.287468        -0.960302
 O        -0.492674        -1.222310        -0.401140
 C        -0.045868         0.065204         0.164493
 O         1.153074         0.199101         0.236272
 C        -1.029711         1.166063         0.227682
 C        -1.668914         1.322884        -1.117209
 H        -3.407617        -1.077411        -3.243127
 H        -3.694266         0.663646        -3.200270
 H        -2.189073         0.114161        -3.742965
 H        -3.395824        -0.392495         0.630455
 H        -3.908348        -1.414019        -0.824914
 H        -1.933926        -2.337964        -1.365327
 H        -1.729396         1.127036         1.065702
 H        -0.432745         2.170922         0.355798
 H        -2.329042         2.172072        -1.105737
 H        -0.841792         1.476046        -1.858385
