19
Iteration:   220charge 0 multiplicity 1
 C        -3.109931        -0.167574        -2.909182
 C        -2.567905        -0.017482        -1.525834
 C        -3.111264        -0.860319        -0.409878
 C        -1.763068        -1.180641        -1.017824
 O        -0.403083        -1.065564        -0.486348
 C         0.028271         0.050238         0.057522
 O         1.082119         0.029015         0.660797
 C        -0.781021         1.307333        -0.066574
 C        -1.852679         1.274157        -1.145655
 H        -3.358711        -1.237455        -3.038080
 H        -4.065115         0.335411        -3.051683
 H        -2.509742         0.330604        -3.613423
 H        -3.021816        -0.522365         0.640656
 H        -3.865839        -1.565649        -0.675934
 H        -1.712624        -2.160465        -1.596634
 H        -1.346668         1.294974         0.951081
 H        -0.187809         2.131024        -0.053497
 H        -2.626961         2.040242        -0.960078
 H        -1.494451         1.657049        -2.037046
