19
Iteration:  1775
 C        -2.861412        -0.027804        -2.980680
 C        -2.432780        -0.074990        -1.428205
 C        -3.180200        -1.160467        -0.561774
 C        -1.679317        -1.229934        -1.008780
 O        -0.485289        -1.129471        -0.202218
 C        -0.059411         0.102583         0.094757
 O         1.079171         0.157881         0.521033
 C        -0.680894         1.388543        -0.405125
 C        -2.195328         1.275984        -0.829091
 H        -3.192209        -1.025608        -3.370134
 H        -3.665747         0.771480        -2.989667
 H        -2.036437         0.431647        -3.523790
 H        -3.277342        -0.753747         0.538543
 H        -3.986456        -1.923326        -0.798051
 H        -1.483460        -1.868515        -1.858460
 H        -0.745677         2.091888         0.449535
 H        -0.095039         1.791118        -1.203472
 H        -2.853975         1.385720        -0.022982
 H        -2.315049         1.942094        -1.738556
