19
Iteration:  2969charge 0 multiplicity 1
 C        -3.423234        -0.093049        -2.729684
 C        -2.502111        -0.057954        -1.593667
 C        -2.719526        -0.896101        -0.311475
 C        -1.643173        -1.177134        -1.251125
 O        -0.302874        -1.021187        -0.572985
 C        -0.048409         0.070631         0.201914
 O         0.871789        -0.064447         1.022289
 C        -0.880921         1.339305        -0.174307
 C        -1.808159         1.273801        -1.474669
 H        -4.203686        -0.897214        -2.678071
 H        -4.018833         0.854948        -2.799670
 H        -2.819674        -0.343747        -3.574469
 H        -2.510786        -0.555543         0.663314
 H        -3.619283        -1.526666        -0.334289
 H        -1.623950        -2.155086        -1.857302
 H        -1.554198         1.534148         0.615131
 H        -0.088853         2.144951        -0.261858
 H        -2.452775         2.018731        -1.479196
 H        -1.123397         1.367058        -2.330528
