19
Iteration:  2600
 C        -3.548499        -0.156846        -2.612648
 C        -2.486107        -0.038802        -1.486686
 C        -2.599012        -0.914881        -0.277339
 C        -1.501528        -1.227382        -1.264771
 O        -0.217933        -0.953061        -0.743068
 C        -0.077834         0.022484         0.162575
 O         0.543428        -0.154258         1.191595
 C        -0.770719         1.417588        -0.392489
 C        -1.755120         1.362431        -1.451701
 H        -4.076572        -1.175663        -2.591293
 H        -4.366252         0.558206        -2.570446
 H        -2.884238        -0.223691        -3.485987
 H        -2.338533        -0.502090         0.606293
 H        -3.540568        -1.398532        -0.383920
 H        -1.461785        -2.081827        -1.849134
 H        -1.319844         1.838548         0.468286
 H         0.093874         2.125809        -0.513137
 H        -2.449630         2.219606        -1.388134
 H        -1.224490         1.364713        -2.435747
