19
Iteration:  2808charge 0 multiplicity 1
 C        -2.518449        -0.080487        -2.955469
 C        -2.473149        -0.007007        -1.466873
 C        -3.120693        -0.970518        -0.534031
 C        -1.722135        -1.234715        -0.870309
 O        -0.724112        -1.131821         0.090531
 C        -0.060676         0.088579        -0.017530
 O         1.096198         0.135557        -0.272998
 C        -1.057242         1.264636         0.235703
 C        -1.931084         1.296527        -0.964893
 H        -3.154680        -0.857865        -3.459154
 H        -2.941637         0.789051        -3.440254
 H        -1.508252        -0.368916        -3.296914
 H        -3.288908        -0.572220         0.488094
 H        -3.944871        -1.469620        -0.957041
 H        -1.442689        -2.023192        -1.686073
 H        -1.568799         0.920909         1.218484
 H        -0.555407         2.229860         0.560385
 H        -2.839489         1.850022        -0.774815
 H        -1.339691         1.746135        -1.712916
