19
Iteration:   754
 C        -3.207991         0.200031        -2.747799
 C        -2.484597        -0.035107        -1.437140
 C        -2.906031        -1.247608        -0.618037
 C        -1.595523        -1.239313        -1.131433
 O        -0.512764        -1.094340        -0.231878
 C         0.054727         0.131093         0.010628
 O         0.690064         0.179752         1.016581
 C        -0.438479         1.157238        -0.938746
 C        -1.974780         1.257662        -0.775923
 H        -3.855145        -0.724712        -3.034360
 H        -4.024231         0.995269        -2.624278
 H        -2.530708         0.747092        -3.523522
 H        -3.113557        -1.173421         0.485879
 H        -3.645449        -1.830973        -1.190910
 H        -1.259848        -1.929362        -1.904418
 H         0.044431         2.123206        -0.928467
 H        -0.326885         0.815696        -1.897098
 H        -2.264101         1.344644         0.254807
 H        -2.458341         2.165313        -1.358859
