19
Iteration:  2135charge 0 multiplicity 1
 C        -3.482389        -0.021197        -2.681158
 C        -2.520120        -0.051880        -1.496137
 C        -2.716994        -1.060636        -0.369487
 C        -1.562042        -1.275249        -1.248665
 O        -0.305286        -1.083628        -0.594149
 C        -0.071848         0.066009         0.130404
 O         0.777723         0.092025         1.014567
 C        -0.808155         1.352781        -0.155892
 C        -1.740868         1.289836        -1.465318
 H        -4.166224        -0.929886        -2.893577
 H        -4.245216         0.819658        -2.633487
 H        -2.953763         0.003307        -3.669608
 H        -2.542733        -0.596530         0.611480
 H        -3.587707        -1.631420        -0.511618
 H        -1.326771        -2.121861        -1.968821
 H        -1.327223         1.718135         0.747560
 H         0.032884         2.007731        -0.160783
 H        -2.568654         2.039232        -1.254218
 H        -1.265665         1.545224        -2.402532
