19
Iteration:  3631charge 0 multiplicity 1
 C        -3.091027        -0.064908        -2.973229
 C        -2.550085         0.000403        -1.586162
 C        -3.105204        -0.963111        -0.432136
 C        -1.699548        -1.180444        -1.065437
 O        -0.556489        -1.116081        -0.202908
 C         0.040659         0.043692         0.118558
 O         1.243688         0.009444         0.404700
 C        -0.933435         1.301742         0.074041
 C        -1.879852         1.315091        -1.164020
 H        -3.405698        -1.112956        -3.188369
 H        -3.928858         0.566214        -3.058775
 H        -2.386498         0.235867        -3.804426
 H        -3.111602        -0.517317         0.538584
 H        -4.035194        -1.541373        -0.538769
 H        -1.486383        -1.974337        -1.854977
 H        -1.482130         1.288923         1.054729
 H        -0.300017         2.238611         0.035508
 H        -2.402458         2.217283        -1.070163
 H        -1.054847         1.457863        -1.851369
