19
Iteration:  3988
 C        -3.072395         0.043739        -2.910485
 C        -2.555791         0.007969        -1.489482
 C        -3.096024        -0.973594        -0.564865
 C        -1.707182        -1.231860        -1.059549
 O        -0.514986        -1.200690        -0.221842
 C         0.093931         0.029633         0.019729
 O         1.116459         0.086075         0.692404
 C        -0.596509         1.273043        -0.330346
 C        -2.153706         1.312728        -0.962512
 H        -3.012074        -0.951224        -3.282221
 H        -4.132035         0.289604        -3.004256
 H        -2.415972         0.519395        -3.577215
 H        -3.310239        -0.708625         0.433111
 H        -3.810526        -1.672139        -0.941517
 H        -1.680776        -2.034822        -1.814604
 H        -0.403119         2.060702         0.439034
 H         0.217020         1.691913        -1.170574
 H        -2.913788         1.642714        -0.107522
 H        -2.330229         2.038351        -1.771688
