19
Iteration:  3135charge 0 multiplicity 1
 C        -3.242296        -0.073744        -2.902738
 C        -2.497525        -0.054567        -1.574138
 C        -2.903345        -0.947842        -0.374852
 C        -1.667067        -1.237855        -1.178862
 O        -0.465575        -1.131521        -0.413507
 C         0.026827         0.032162         0.081067
 O         1.012437         0.111360         0.829614
 C        -0.823819         1.341228        -0.112469
 C        -1.868431         1.295784        -1.247098
 H        -3.899302        -0.942358        -2.823546
 H        -3.927676         0.777821        -2.883885
 H        -2.673326        -0.114982        -3.839465
 H        -2.798848        -0.534516         0.654430
 H        -3.814292        -1.600902        -0.298821
 H        -1.569018        -2.151227        -1.780769
 H        -1.321558         1.484169         0.821635
 H        -0.027739         2.096652        -0.350832
 H        -2.809378         2.071395        -1.092290
 H        -1.418592         1.559473        -2.201509
