19
Iteration:   953charge 0 multiplicity 1
 C        -2.688229        -0.029259        -2.967239
 C        -2.509522        -0.076578        -1.459923
 C        -3.227146        -1.081486        -0.553535
 C        -1.763191        -1.279661        -0.906765
 O        -0.585596        -1.165207        -0.085458
 C        -0.020170         0.163179        -0.013814
 O         1.170843         0.099604         0.213974
 C        -0.756309         1.401737        -0.086391
 C        -2.121619         1.314232        -0.887242
 H        -2.512233        -1.052882        -3.434535
 H        -3.658453         0.363395        -3.319483
 H        -1.904974         0.413746        -3.497175
 H        -3.595662        -0.690176         0.379365
 H        -3.917287        -1.623945        -1.082925
 H        -1.642154        -2.091794        -1.690981
 H        -1.028963         1.753591         0.860137
 H        -0.081576         2.083994        -0.599562
 H        -2.863533         1.488760        -0.180772
 H        -2.347090         2.042953        -1.837824
