19
Iteration:  1694charge 0 multiplicity 1
 C        -3.157086         0.188340        -2.771280
 C        -2.452797        -0.053378        -1.460331
 C        -2.998516        -1.349854        -0.684866
 C        -1.603770        -1.310745        -1.152203
 O        -0.562689        -1.110065        -0.092591
 C         0.047945         0.131594        -0.000859
 O         0.861701         0.264732         0.926311
 C        -0.490832         1.262591        -0.797576
 C        -2.044497         1.262670        -0.854620
 H        -3.344038        -0.750227        -3.416516
 H        -4.143852         0.609299        -2.548946
 H        -2.643874         0.830793        -3.548278
 H        -3.130438        -1.172174         0.323582
 H        -3.821525        -1.822244        -1.123009
 H        -1.140866        -1.933441        -1.912634
 H        -0.140558         2.225224        -0.515401
 H        -0.248582         1.043788        -1.751396
 H        -2.567995         1.307369         0.162731
 H        -2.433848         2.200611        -1.176974
