19
Iteration:  3636
 C        -3.080108        -0.063013        -3.031407
 C        -2.554520         0.019961        -1.591888
 C        -3.104858        -0.966148        -0.402042
 C        -1.702063        -1.206526        -1.029070
 O        -0.522391        -1.131733        -0.203025
 C         0.042082         0.088036         0.142239
 O         1.226441        -0.001572         0.373293
 C        -0.952068         1.269162         0.119812
 C        -1.870331         1.346005        -1.209133
 H        -3.385403        -1.106646        -3.230729
 H        -4.074599         0.582526        -3.037086
 H        -2.429642         0.225278        -3.863562
 H        -3.073072        -0.373056         0.554630
 H        -4.022192        -1.564196        -0.427365
 H        -1.542060        -1.923499        -1.782830
 H        -1.507528         1.064258         1.034492
 H        -0.359820         2.193933         0.191861
 H        -2.382917         2.378868        -1.026955
 H        -1.043730         1.387415        -1.970615
