19
Iteration:  1109
 C        -3.126919        -0.156946        -2.915490
 C        -2.467861        -0.077289        -1.584689
 C        -3.074687        -0.842178        -0.402225
 C        -1.733500        -1.276553        -1.074261
 O        -0.387105        -1.073066        -0.498616
 C         0.023734         0.054062         0.060206
 O         1.108601         0.118867         0.650626
 C        -0.990059         1.259301         0.065862
 C        -1.811263         1.350263        -1.170520
 H        -3.456379        -1.256951        -3.098832
 H        -4.187748         0.145440        -2.774537
 H        -2.776168         0.282854        -3.822969
 H        -2.868800        -0.455717         0.684543
 H        -3.959924        -1.560476        -0.490309
 H        -1.770720        -2.258361        -1.488093
 H        -1.551750         1.469404         1.070035
 H        -0.265229         2.196436         0.113302
 H        -2.694238         1.955974        -1.177481
 H        -1.059212         1.610230        -2.050104
