19
Iteration:   798
 C        -3.005778         0.249764        -2.850815
 C        -2.554333        -0.079292        -1.362732
 C        -3.035366        -1.255087        -0.539669
 C        -1.662996        -1.280333        -1.096241
 O        -0.546223        -1.186786        -0.272012
 C         0.046438         0.097075        -0.113184
 O         0.697518         0.330965         0.910741
 C        -0.432793         1.199061        -0.919701
 C        -1.940627         1.233105        -0.608694
 H        -2.963870        -0.718759        -3.482422
 H        -4.081857         0.572243        -2.723829
 H        -2.451423         1.141399        -3.323156
 H        -3.289267        -1.334991         0.522199
 H        -3.598281        -2.045196        -1.091232
 H        -1.416273        -1.955668        -1.948307
 H         0.082959         2.053861        -0.555279
 H        -0.332880         1.155237        -1.906269
 H        -2.151973         1.224471         0.449090
 H        -2.427534         2.218772        -1.101520
