19
Iteration:  1139
 C        -3.244623        -0.171989        -2.874393
 C        -2.566818         0.009356        -1.529886
 C        -2.867920        -0.780806        -0.259149
 C        -1.662204        -1.180301        -1.097716
 O        -0.338115        -0.991400        -0.644646
 C        -0.041718         0.036978         0.135204
 O         1.020717         0.069011         0.730686
 C        -1.120706         1.162066         0.023398
 C        -1.668717         1.233153        -1.348154
 H        -3.467803        -1.270193        -3.050127
 H        -4.140452         0.450242        -2.893753
 H        -2.579005         0.052512        -3.665425
 H        -2.799588        -0.385676         0.793977
 H        -3.641750        -1.605265        -0.318619
 H        -1.721376        -2.149823        -1.470476
 H        -1.891654         1.029685         0.741074
 H        -0.552514         2.142984         0.480148
 H        -2.328951         2.074557        -1.366967
 H        -0.943211         1.311127        -2.076267
