19
Iteration:  1485charge 0 multiplicity 1
 C        -2.980611         0.044442        -2.969161
 C        -2.514539        -0.100704        -1.496945
 C        -3.062951        -1.241279        -0.594961
 C        -1.678417        -1.270564        -1.053037
 O        -0.655247        -1.086817        -0.099836
 C         0.046862         0.124974        -0.012404
 O         1.153727         0.183562         0.543249
 C        -0.699548         1.375741        -0.254029
 C        -2.087055         1.288811        -0.931897
 H        -3.497759        -0.871729        -3.216177
 H        -3.650665         0.912062        -3.008437
 H        -2.066369         0.051082        -3.656847
 H        -3.320804        -1.170214         0.506165
 H        -3.772539        -2.112781        -0.884906
 H        -1.361328        -2.057291        -1.763437
 H        -0.822312         1.973658         0.788787
 H         0.103423         2.048032        -0.859907
 H        -2.874417         1.671344        -0.308060
 H        -2.221758         1.939390        -1.785803
