19
Iteration:  1629charge 0 multiplicity 1
 C        -3.106612         0.138491        -2.772794
 C        -2.525419        -0.070942        -1.393590
 C        -2.984731        -1.266618        -0.629067
 C        -1.567518        -1.252049        -1.136385
 O        -0.492111        -1.122853        -0.215590
 C        -0.001801         0.155272        -0.026535
 O         0.677678         0.257683         0.923510
 C        -0.461630         1.315037        -0.887830
 C        -1.960228         1.174327        -0.724232
 H        -3.624596        -0.816954        -3.144562
 H        -3.784844         0.995674        -2.743467
 H        -2.261354         0.304132        -3.507247
 H        -3.261361        -1.203762         0.393016
 H        -3.734274        -1.814629        -1.081601
 H        -1.375218        -1.841085        -2.023817
 H         0.083163         2.151110        -0.454383
 H        -0.219771         1.010380        -1.950122
 H        -2.261814         1.282634         0.388284
 H        -2.466433         2.044015        -1.189021
