19
Iteration:   749
 C        -3.270346         0.201919        -2.766246
 C        -2.514555        -0.051257        -1.451773
 C        -2.920623        -1.246830        -0.621299
 C        -1.604993        -1.254514        -1.155927
 O        -0.500632        -1.098189        -0.230304
 C         0.071553         0.151940         0.014210
 O         0.711578         0.167213         1.027152
 C        -0.417870         1.180558        -0.899440
 C        -1.972627         1.300091        -0.780024
 H        -3.607416        -0.754323        -3.058552
 H        -4.014817         0.960737        -2.717641
 H        -2.595695         0.480577        -3.570100
 H        -3.157947        -1.217121         0.451330
 H        -3.695566        -1.835155        -1.138626
 H        -1.211615        -2.023276        -1.832552
 H         0.082209         2.165883        -0.777636
 H        -0.236352         0.801871        -2.016263
 H        -2.261573         1.427657         0.328890
 H        -2.354120         2.095979        -1.320115
