19
Iteration:  3687charge 0 multiplicity 1
 C        -2.999725        -0.083263        -2.933832
 C        -2.424625        -0.057194        -1.569544
 C        -3.216475        -0.715152        -0.452880
 C        -1.828532        -1.305594        -0.906427
 O        -0.432153        -1.260932        -0.427907
 C        -0.050249        -0.056965         0.082886
 O         1.107925         0.273726         0.262604
 C        -0.990338         1.253534         0.300607
 C        -1.677294         1.273058        -1.127021
 H        -3.389499        -1.098164        -3.211831
 H        -3.853181         0.564348        -3.019657
 H        -2.150884         0.185788        -3.629314
 H        -3.266548        -0.233386         0.525733
 H        -4.087707        -1.381344        -0.623190
 H        -1.805502        -2.253229        -1.496431
 H        -1.767093         1.176688         1.041911
 H        -0.164426         2.063263         0.647216
 H        -2.355585         2.123147        -1.267989
 H        -0.944285         1.532301        -1.908142
