19
Iteration:  4545
 C        -2.814629        -0.143520        -3.094310
 C        -2.463445         0.044922        -1.556119
 C        -3.112537        -0.770935        -0.405050
 C        -1.910760        -1.270718        -0.951559
 O        -0.621007        -1.210808        -0.184441
 C        -0.003039        -0.016112         0.053373
 O         1.147047         0.283611         0.044388
 C        -0.999086         1.121720         0.298617
 C        -1.732457         1.272270        -0.979001
 H        -3.451306        -0.982593        -3.383975
 H        -3.175480         0.769027        -3.566325
 H        -1.813821        -0.291484        -3.425689
 H        -3.206073        -0.248738         0.535689
 H        -4.092230        -1.262371        -0.524748
 H        -1.763471        -2.201188        -1.532980
 H        -1.765204         1.065494         1.178986
 H        -0.304379         2.070989         0.364951
 H        -2.527573         2.035779        -0.906458
 H        -1.111154         1.615584        -1.750212
