19
Iteration:  1518
 C        -3.084489         0.003115        -2.892840
 C        -2.448434        -0.099122        -1.557990
 C        -3.016377        -1.114502        -0.628697
 C        -1.579689        -1.184166        -1.079953
 O        -0.638458        -1.128491        -0.086253
 C         0.042916         0.094723         0.117385
 O         1.132841         0.101916         0.574423
 C        -0.756608         1.382803        -0.260081
 C        -2.121092         1.275048        -1.028408
 H        -3.368937        -1.045476        -3.065380
 H        -4.052070         0.573067        -2.848564
 H        -2.522803         0.405458        -3.850109
 H        -2.962530        -0.815776         0.463745
 H        -3.651065        -2.046565        -0.959748
 H        -1.208899        -1.897458        -1.838634
 H        -0.635843         2.135958         0.699523
 H        -0.154050         1.995011        -1.123517
 H        -2.912890         1.458471        -0.267443
 H        -2.099194         1.952073        -1.892680
