19
Iteration:    80charge 0 multiplicity 1
 C        -2.851028        -0.072295        -2.971481
 C        -2.368488        -0.007246        -1.555919
 C        -3.135285        -0.784672        -0.408590
 C        -1.747541        -1.235814        -0.918275
 O        -0.555768        -1.232766        -0.071731
 C        -0.041764         0.009500         0.131244
 O         1.154477         0.167933         0.065520
 C        -1.038436         1.147924         0.110933
 C        -1.889606         1.360861        -1.188661
 H        -3.445556        -1.016249        -3.074751
 H        -3.531329         0.698954        -3.188281
 H        -2.049374         0.047362        -3.684590
 H        -3.100265        -0.417667         0.659865
 H        -3.876762        -1.544750        -0.669337
 H        -1.645436        -2.166679        -1.524952
 H        -1.820911         1.024185         0.978438
 H        -0.517918         2.045203         0.351027
 H        -2.680507         2.077500        -1.009147
 H        -1.264862         1.854982        -1.987162
