19
Iteration:  4435
 C        -3.132395        -0.087275        -2.856602
 C        -2.448312         0.052900        -1.498335
 C        -3.181333        -0.969965        -0.469553
 C        -1.806249        -1.179102        -1.046000
 O        -0.468473        -1.149101        -0.391897
 C         0.110562         0.072428         0.090768
 O         1.169933        -0.009696         0.630977
 C        -0.839110         1.269239        -0.084847
 C        -1.866759         1.390884        -1.241115
 H        -3.403607        -1.100381        -2.999290
 H        -4.015541         0.538327        -2.899911
 H        -2.550101         0.229725        -3.711438
 H        -3.131188        -0.714100         0.613930
 H        -3.837949        -1.701270        -0.923919
 H        -1.770948        -2.175240        -1.577492
 H        -1.439608         1.158795         0.863491
 H        -0.303010         2.259467         0.148357
 H        -2.601505         2.124892        -0.877839
 H        -1.420743         1.914906        -2.044701
