19
Iteration:  3032
 C        -3.489754        -0.131397        -2.597800
 C        -2.443212        -0.008967        -1.501064
 C        -2.647290        -0.829437        -0.226886
 C        -1.524826        -1.232192        -1.184930
 O        -0.099921        -0.983055        -0.781153
 C        -0.147826         0.047741         0.111107
 O         0.443832        -0.168144         1.132771
 C        -0.734449         1.378738        -0.351335
 C        -1.760339         1.289760        -1.477418
 H        -3.687572        -1.157867        -2.901546
 H        -4.459675         0.300811        -2.243985
 H        -3.197525         0.445249        -3.451539
 H        -2.307065        -0.487069         0.741081
 H        -3.515660        -1.527286        -0.225560
 H        -1.642278        -2.243173        -1.761504
 H        -1.189786         1.709034         0.636573
 H         0.096895         2.178494        -0.499697
 H        -2.638908         2.233629        -1.597731
 H        -1.213011         1.378112        -2.429879
