19
Iteration:  2114
 C        -3.435017        -0.111263        -2.759798
 C        -2.501995        -0.079946        -1.616960
 C        -2.805731        -0.940033        -0.367977
 C        -1.576743        -1.175336        -1.214069
 O        -0.246608        -1.054296        -0.618351
 C        -0.029918         0.058835         0.125237
 O         0.761708         0.001589         1.071454
 C        -0.724220         1.350115        -0.261229
 C        -1.897396         1.296470        -1.246341
 H        -3.963270        -1.127838        -2.803662
 H        -4.329752         0.530202        -2.463890
 H        -3.148535         0.085833        -3.799664
 H        -2.430961        -0.717661         0.644609
 H        -3.519743        -1.698588        -0.477594
 H        -1.506323        -2.166243        -1.809720
 H        -1.051761         2.035570         0.531897
 H         0.179971         2.050639        -0.612886
 H        -2.614707         2.125068        -1.067224
 H        -1.425679         1.524709        -2.142307
