19
Iteration:  2355charge 0 multiplicity 1
 C        -2.696352        -0.102925        -2.960669
 C        -2.409114        -0.027770        -1.445211
 C        -3.158429        -0.837674        -0.507033
 C        -1.727426        -1.304000        -0.867100
 O        -0.605191        -1.150852        -0.092656
 C        -0.055012         0.062157         0.023556
 O         1.148973         0.188617        -0.035163
 C        -1.010371         1.191613         0.227213
 C        -1.959125         1.319356        -1.097899
 H        -2.805530        -1.167036        -3.173766
 H        -3.713173         0.325234        -3.291598
 H        -2.036816         0.426812        -3.637439
 H        -3.343400        -0.591619         0.577786
 H        -3.907740        -1.454976        -1.015460
 H        -1.471038        -1.987499        -1.604153
 H        -1.825854         1.016448         1.070351
 H        -0.421929         1.909176         0.633771
 H        -2.910812         2.004093        -0.979507
 H        -1.295812         1.893762        -1.867224
