19
Iteration:  4911
 C        -2.823276        -0.050808        -2.938135
 C        -2.494083         0.060569        -1.539849
 C        -3.150403        -0.825366        -0.476562
 C        -1.787260        -1.202902        -0.907329
 O        -0.594630        -1.212556        -0.057387
 C         0.019567         0.026834         0.101038
 O         1.199473         0.174559         0.050882
 C        -1.054062         1.120498         0.174334
 C        -1.805225         1.279240        -1.226997
 H        -3.467728        -0.845270        -3.189011
 H        -3.317409         0.876563        -3.060023
 H        -1.916073        -0.075201        -3.551290
 H        -3.242734        -0.468977         0.557599
 H        -3.872996        -1.628555        -0.734685
 H        -1.858523        -2.157376        -1.386072
 H        -1.901359         0.809612         0.946442
 H        -0.647412         2.076121         0.518854
 H        -2.492656         2.183566        -1.186908
 H        -1.044160         1.527819        -1.907183
