19
Iteration:  2837
 C        -2.629309        -0.042216        -3.040835
 C        -2.379312        -0.070993        -1.539577
 C        -3.162253        -0.982868        -0.533491
 C        -1.766370        -1.284983        -0.838972
 O        -0.697982        -1.150460         0.095397
 C        -0.056085         0.097338         0.005024
 O         1.158750         0.163099        -0.215369
 C        -1.022327         1.265099         0.273448
 C        -1.908455         1.299292        -0.960215
 H        -3.016449        -1.038950        -3.317206
 H        -3.428680         0.766504        -3.240266
 H        -1.763887         0.245846        -3.648391
 H        -3.293369        -0.386368         0.397988
 H        -4.049309        -1.456214        -0.961093
 H        -1.643085        -2.200788        -1.449733
 H        -1.519940         1.048536         1.147371
 H        -0.581252         2.271421         0.508365
 H        -2.978943         1.856911        -0.999431
 H        -1.232422         1.905704        -1.760368
