19
Iteration:  1224
 C        -3.321202        -0.094027        -2.801152
 C        -2.511906        -0.010300        -1.533532
 C        -2.861986        -1.060843        -0.475008
 C        -1.600000        -1.236378        -1.211968
 O        -0.408614        -1.103080        -0.417608
 C        -0.017483         0.060431         0.105204
 O         0.875705         0.125801         0.925111
 C        -0.643265         1.310926        -0.332108
 C        -1.959168         1.320171        -1.121574
 H        -3.752021        -1.101233        -3.007160
 H        -4.288112         0.443484        -2.810352
 H        -2.711917         0.374682        -3.641028
 H        -2.724607        -0.767966         0.608753
 H        -3.738551        -1.672768        -0.754314
 H        -1.393887        -1.974097        -1.910909
 H        -0.735429         1.831640         0.613344
 H         0.104227         1.779381        -0.884025
 H        -2.836109         1.942385        -0.632216
 H        -1.639739         1.886122        -2.100473
