19
Iteration:  3742
 C        -3.036141        -0.038729        -2.948076
 C        -2.443899         0.033135        -1.514639
 C        -3.087937        -0.984901        -0.510035
 C        -1.745860        -1.252436        -1.000823
 O        -0.598505        -1.171549        -0.180427
 C         0.035441         0.032659         0.061065
 O         1.207688         0.064705         0.367184
 C        -0.885704         1.286659         0.026825
 C        -1.911974         1.362691        -1.110541
 H        -3.704056        -0.915607        -2.954898
 H        -3.583011         0.832514        -3.188840
 H        -2.287250        -0.132858        -3.754779
 H        -3.225421        -0.760599         0.580772
 H        -3.935374        -1.423708        -1.005282
 H        -1.540764        -2.057867        -1.716603
 H        -1.384442         1.370539         0.983781
 H        -0.138221         2.217445        -0.045472
 H        -2.751824         2.003764        -0.778093
 H        -1.501990         1.887982        -2.003227
