19
Iteration:  2300charge 0 multiplicity 1
 C        -2.888419        -0.042212        -2.955544
 C        -2.455610        -0.044772        -1.523287
 C        -3.137529        -1.079697        -0.674021
 C        -1.690582        -1.249132        -0.956112
 O        -0.651317        -1.066399         0.098311
 C         0.043228         0.076208         0.016288
 O         1.277747         0.088929         0.127848
 C        -0.927130         1.356350         0.046930
 C        -2.023067         1.269014        -0.989562
 H        -3.612751        -0.824930        -3.255537
 H        -3.493972         0.922476        -3.109606
 H        -1.982337        -0.071443        -3.567719
 H        -3.465842        -0.738826         0.338392
 H        -3.877669        -1.615954        -1.250714
 H        -1.339803        -2.020957        -1.641882
 H        -1.524357         1.263651         1.037335
 H        -0.467099         2.254948        -0.005819
 H        -3.062956         1.797552        -0.743040
 H        -1.463187         1.828424        -1.843759
