19
Iteration:  4447charge 0 multiplicity 1
 C        -3.066554        -0.090360        -2.877740
 C        -2.453689        -0.040792        -1.553842
 C        -3.126630        -0.961201        -0.464755
 C        -1.728171        -1.212129        -0.993559
 O        -0.547438        -1.091577        -0.310551
 C         0.033573         0.050245         0.075518
 O         1.171306        -0.052119         0.491001
 C        -0.845774         1.337509        -0.014439
 C        -1.863308         1.400859        -1.164068
 H        -3.251576        -1.056535        -3.334636
 H        -4.038593         0.417328        -2.804505
 H        -2.401636         0.446915        -3.509214
 H        -3.439075        -0.567564         0.511580
 H        -4.025559        -1.418885        -0.828392
 H        -1.609973        -2.025595        -1.773103
 H        -1.476983         1.261967         0.866786
 H        -0.171849         2.257360         0.060773
 H        -2.717657         2.003631        -0.881213
 H        -1.456691         1.751074        -2.130390
