19
Iteration:  4691charge 0 multiplicity 1
 C        -3.513686        -0.098772        -2.905959
 C        -2.561095        -0.025015        -1.565339
 C        -2.820686        -0.851189        -0.229468
 C        -1.663842        -1.119798        -1.160591
 O        -0.232613        -1.065191        -0.694120
 C        -0.070601        -0.013698         0.237473
 O         0.871237        -0.068648         1.017870
 C        -0.759913         1.294575        -0.169719
 C        -1.722073         1.299642        -1.377453
 H        -3.616595        -1.166867        -3.092454
 H        -4.493021         0.342451        -2.621638
 H        -3.083495         0.488183        -3.724846
 H        -2.912699        -0.269000         0.686127
 H        -3.765809        -1.399855        -0.353389
 H        -1.719157        -2.163729        -1.637095
 H        -1.302045         1.625252         0.808853
 H         0.142171         1.960229        -0.317525
 H        -2.255100         2.209439        -1.396077
 H        -1.087073         1.267896        -2.325832
