19
Iteration:  3502
 C        -3.161607         0.157306        -2.761038
 C        -2.496751         0.020726        -1.372985
 C        -2.889276        -1.175726        -0.474937
 C        -1.659830        -1.233070        -1.304566
 O        -0.526158        -1.171656        -0.441641
 C        -0.026073         0.050910         0.045732
 O         0.649664         0.147796         1.072940
 C        -0.400712         1.242082        -0.834987
 C        -1.932707         1.299849        -0.760229
 H        -3.264574        -0.868203        -3.232889
 H        -4.176076         0.610004        -2.728805
 H        -2.410023         0.689378        -3.416451
 H        -2.625947        -1.043376         0.574503
 H        -3.740953        -1.713153        -0.784609
 H        -1.525624        -2.004341        -2.089985
 H         0.165348         2.087433        -0.582199
 H        -0.174225         1.040595        -1.971619
 H        -2.350588         1.695437         0.301340
 H        -2.307060         2.128123        -1.446031
