19
Iteration:  4862charge 0 multiplicity 1
 C        -3.096583        -0.166442        -2.919053
 C        -2.409810         0.004228        -1.542966
 C        -3.113998        -0.737976        -0.458624
 C        -1.747730        -1.255110        -0.990193
 O        -0.524669        -1.137632        -0.348563
 C        -0.004236         0.007918         0.137021
 O         1.204428         0.062109         0.456897
 C        -0.933588         1.221226         0.084785
 C        -1.847035         1.324521        -1.192869
 H        -2.893783        -1.216907        -3.255311
 H        -4.175668         0.158632        -2.952717
 H        -2.490685         0.436065        -3.604957
 H        -3.229716        -0.157096         0.435580
 H        -4.000796        -1.266671        -0.806997
 H        -1.747309        -2.120970        -1.710933
 H        -1.609869         1.283010         0.865456
 H        -0.280163         2.095300         0.107995
 H        -2.723414         2.054096        -1.063390
 H        -1.104817         1.744092        -2.014834
