19
Iteration:  2503charge 0 multiplicity 1
 C        -3.388910        -0.165314        -2.763574
 C        -2.439491        -0.064256        -1.527360
 C        -2.854155        -1.000755        -0.326403
 C        -1.606776        -1.192104        -1.217601
 O        -0.347987        -1.049008        -0.612540
 C        -0.026390         0.045083         0.148680
 O         0.792384         0.061841         1.043219
 C        -0.706748         1.304028        -0.291034
 C        -1.840244         1.339485        -1.289124
 H        -3.627308        -1.197302        -3.149178
 H        -4.234850         0.455528        -2.565049
 H        -2.866489         0.257523        -3.660564
 H        -2.807237        -0.533834         0.635474
 H        -3.725142        -1.564687        -0.557619
 H        -1.620693        -2.049339        -1.826167
 H        -0.897339         1.827561         0.533292
 H        -0.069886         2.047544        -0.884520
 H        -2.689960         2.012099        -0.833262
 H        -1.440172         1.927242        -2.227282
