19
Iteration:  1110charge 0 multiplicity 1
 C        -3.130817        -0.161111        -2.912105
 C        -2.463475        -0.072643        -1.584470
 C        -3.075388        -0.837423        -0.392486
 C        -1.723947        -1.274245        -1.070012
 O        -0.384827        -1.066378        -0.510682
 C         0.020542         0.050980         0.061497
 O         1.104372         0.112552         0.651722
 C        -0.996591         1.265380         0.069652
 C        -1.808289         1.341423        -1.179678
 H        -3.440114        -1.246744        -3.099425
 H        -4.197124         0.152329        -2.744123
 H        -2.753732         0.284719        -3.866300
 H        -2.874213        -0.435271         0.681155
 H        -3.938117        -1.538345        -0.472577
 H        -1.757632        -2.292453        -1.498691
 H        -1.566407         1.458859         1.079971
 H        -0.310173         2.138665         0.148813
 H        -2.719402         1.993664        -1.185117
 H        -1.033113         1.587220        -2.065073
