19
Iteration:   179
 C        -2.928294        -0.051156        -3.014003
 C        -2.489288        -0.028043        -1.508369
 C        -3.093777        -0.859271        -0.453760
 C        -1.746646        -1.265773        -0.997840
 O        -0.554517        -1.214759        -0.167299
 C         0.010189         0.065940         0.019905
 O         1.165454         0.056280         0.395569
 C        -0.810509         1.331915        -0.110204
 C        -2.046606         1.314789        -1.015282
 H        -2.897938        -1.172801        -3.308246
 H        -3.932777         0.215019        -3.268215
 H        -2.172262         0.473606        -3.667722
 H        -2.985866        -0.311397         0.612129
 H        -4.037325        -1.511247        -0.537723
 H        -1.658094        -2.197212        -1.642424
 H        -1.203962         1.378962         0.860283
 H        -0.163883         2.269566        -0.202072
 H        -2.835395         1.886204        -0.480723
 H        -1.848875         1.984459        -1.913921
