19
Iteration:  3806
 C        -3.051790         0.022429        -2.956030
 C        -2.612994        -0.026738        -1.473682
 C        -2.984028        -1.081088        -0.441848
 C        -1.673871        -1.134706        -1.091288
 O        -0.555819        -1.131550        -0.261418
 C         0.021328         0.037937         0.025807
 O         0.994897        -0.032651         0.741355
 C        -0.563415         1.363397        -0.469073
 C        -2.045195         1.303658        -0.883971
 H        -2.960296        -0.947853        -3.499651
 H        -4.081155         0.191026        -3.042740
 H        -2.448312         0.736669        -3.533519
 H        -3.164818        -0.625993         0.569556
 H        -3.810403        -1.722724        -0.745319
 H        -1.647489        -1.833773        -1.952159
 H        -0.400192         2.123839         0.263637
 H         0.047477         1.605611        -1.346860
 H        -2.629189         1.728729        -0.116643
 H        -2.237229         2.130620        -1.631013
