19
Iteration:   772charge 0 multiplicity 1
 C        -3.106064         0.292637        -2.685870
 C        -2.482529        -0.135302        -1.391395
 C        -2.987272        -1.220166        -0.584495
 C        -1.573228        -1.219944        -1.263837
 O        -0.542439        -1.190912        -0.209303
 C        -0.014210         0.113584         0.021824
 O         0.677003         0.309338         0.974002
 C        -0.458130         1.141365        -1.029210
 C        -1.970519         1.213790        -0.748459
 H        -3.344423        -0.559034        -3.210282
 H        -3.922609         0.974148        -2.492912
 H        -2.353628         0.794377        -3.322683
 H        -2.946532        -1.152564         0.589103
 H        -3.815390        -1.955647        -0.849250
 H        -1.220376        -1.864687        -2.030293
 H         0.061948         2.088865        -0.684166
 H        -0.176895         0.855303        -2.136633
 H        -2.079142         1.252189         0.421699
 H        -2.490350         2.028980        -1.176013
