19
Iteration:  2237charge 0 multiplicity 1
 C        -3.004918        -0.159671        -2.932102
 C        -2.438834        -0.020216        -1.504909
 C        -3.061983        -0.943056        -0.396876
 C        -1.769722        -1.224343        -1.033287
 O        -0.450148        -1.127671        -0.380401
 C         0.018119         0.047292         0.055312
 O         1.123126         0.104535         0.534499
 C        -0.926858         1.277213        -0.009262
 C        -1.955764         1.376881        -1.141668
 H        -3.122269        -1.161250        -3.251244
 H        -4.018515         0.355231        -3.168888
 H        -2.392764         0.407493        -3.609152
 H        -3.080473        -0.544798         0.674884
 H        -3.855799        -1.640404        -0.754357
 H        -1.716663        -2.082560        -1.638449
 H        -1.506036         1.440492         0.863276
 H        -0.186236         2.170102         0.019708
 H        -2.768855         2.005995        -0.808544
 H        -1.656127         1.755170        -2.089833
