19
Iteration:  1590
 C        -2.988432         0.049329        -2.948946
 C        -2.559811        -0.082325        -1.446377
 C        -2.996829        -1.081678        -0.428926
 C        -1.657983        -1.296816        -1.108784
 O        -0.406023        -1.160864        -0.358048
 C        -0.016823         0.162402         0.102076
 O         0.898505         0.121727         0.846149
 C        -0.623918         1.352870        -0.604468
 C        -2.177420         1.269341        -0.833497
 H        -2.926694        -0.899890        -3.433800
 H        -4.005474         0.412350        -3.184635
 H        -2.357987         0.774161        -3.406600
 H        -2.877744        -0.654239         0.559863
 H        -3.783480        -1.830445        -0.695108
 H        -1.423152        -1.938862        -1.973411
 H        -0.326571         2.329454        -0.362292
 H        -0.110973         1.165024        -1.545891
 H        -2.565084         1.314959         0.157379
 H        -2.476460         2.060267        -1.531980
