19
Iteration:   478charge 0 multiplicity 1
 C        -3.128679        -0.189667        -2.952531
 C        -2.509495        -0.025377        -1.578071
 C        -3.075623        -0.972917        -0.450460
 C        -1.757034        -1.223657        -1.113537
 O        -0.597467        -1.070929        -0.260462
 C         0.082525         0.107221         0.055855
 O         1.208463         0.016545         0.541531
 C        -0.798005         1.354992         0.051207
 C        -1.891891         1.358243        -1.159141
 H        -3.566855        -1.136437        -3.076448
 H        -3.973876         0.500554        -3.094918
 H        -2.365630         0.049150        -3.685686
 H        -3.112447        -0.525668         0.530358
 H        -3.891283        -1.570524        -0.761422
 H        -1.622110        -2.290643        -1.607147
 H        -1.290042         1.354621         1.159669
 H        -0.123705         2.360472        -0.002446
 H        -2.694338         2.014557        -0.976848
 H        -1.415506         1.793131        -2.071948
