19
Iteration:   669charge 0 multiplicity 1
 C        -3.020230        -0.054900        -2.936839
 C        -2.587284        -0.004815        -1.515707
 C        -3.063713        -0.940714        -0.387716
 C        -1.709623        -1.208876        -1.087526
 O        -0.486589        -1.117226        -0.373398
 C         0.044275         0.022979         0.071191
 O         1.057945         0.051878         0.770593
 C        -0.690552         1.280946        -0.391178
 C        -2.073406         1.318932        -0.976280
 H        -3.067617        -1.075213        -3.431626
 H        -4.051670         0.231317        -2.950361
 H        -2.338039         0.467774        -3.542625
 H        -2.954703        -0.562390         0.592873
 H        -3.754840        -1.675716        -0.641245
 H        -1.680842        -2.123210        -1.723742
 H        -0.656723         1.922243         0.509792
 H         0.142655         1.782682        -1.200333
 H        -2.750086         1.757152        -0.246081
 H        -2.048616         1.942420        -1.874795
