19
Iteration:  4397charge 0 multiplicity 1
 C        -3.309260        -0.007060        -2.871984
 C        -2.463308        -0.032685        -1.608760
 C        -2.829488        -0.799725        -0.292718
 C        -1.697290        -1.253217        -1.178019
 O        -0.404095        -1.119809        -0.556630
 C        -0.062628        -0.002441         0.180718
 O         0.985798         0.016573         0.744951
 C        -0.924055         1.260802        -0.014479
 C        -1.758339         1.296023        -1.270343
 H        -4.023826        -0.896424        -2.716866
 H        -3.910982         0.938318        -2.913799
 H        -2.772641        -0.203181        -3.835386
 H        -2.507462        -0.419225         0.663230
 H        -3.599583        -1.603616        -0.144869
 H        -1.783994        -2.176984        -1.759025
 H        -1.531193         1.549071         0.971878
 H        -0.142841         2.010480        -0.082633
 H        -2.577860         2.020016        -1.191246
 H        -1.143609         1.476335        -2.191374
