19
Iteration:  4119charge 0 multiplicity 1
 C        -3.001098        -0.074800        -3.002137
 C        -2.458414         0.004314        -1.529600
 C        -3.051049        -0.785754        -0.370266
 C        -1.805192        -1.220228        -1.000622
 O        -0.514777        -1.158998        -0.215943
 C        -0.015915         0.029833         0.035763
 O         1.189584         0.137154         0.247360
 C        -1.081190         1.099481         0.210370
 C        -1.754361         1.319617        -1.199621
 H        -3.125728        -1.131560        -3.250515
 H        -4.034095         0.394949        -2.990512
 H        -2.449635         0.519111        -3.796048
 H        -2.976476        -0.306484         0.619624
 H        -3.965300        -1.321463        -0.630651
 H        -1.752319        -2.102194        -1.631309
 H        -1.685537         0.613611         0.964585
 H        -0.599314         2.065871         0.709186
 H        -2.507001         2.170498        -1.214807
 H        -0.912552         1.563786        -1.865993
