19
Iteration:  3881charge 0 multiplicity 1
 C        -3.106846         0.377442        -2.679003
 C        -2.465726        -0.098756        -1.445084
 C        -3.019204        -1.329307        -0.562095
 C        -1.641596        -1.236848        -1.217265
 O        -0.659723        -1.121262        -0.226913
 C         0.027608         0.100957         0.022691
 O         0.737273         0.306763         0.974695
 C        -0.342195         1.135664        -0.998935
 C        -1.911941         1.112804        -0.732525
 H        -3.769549        -0.375685        -3.253139
 H        -3.769409         1.338040        -2.509354
 H        -2.309686         0.740273        -3.424739
 H        -2.948653        -1.133063         0.514709
 H        -3.854510        -1.978212        -0.842238
 H        -1.335919        -1.777699        -2.142784
 H         0.020993         2.136625        -0.907111
 H        -0.235519         0.774107        -1.984059
 H        -2.296776         1.153646         0.250863
 H        -2.456919         1.996871        -1.149923
