19
Iteration:  4347
 C        -3.540104        -0.099015        -2.732506
 C        -2.565783         0.038383        -1.531676
 C        -2.798710        -0.927886        -0.302440
 C        -1.685114        -1.135584        -1.194944
 O        -0.295781        -1.020471        -0.786006
 C        -0.039468        -0.010010         0.159686
 O         0.851426         0.005224         1.045194
 C        -0.802837         1.215529        -0.085469
 C        -1.596053         1.267812        -1.386277
 H        -3.922764        -1.090108        -2.781255
 H        -4.306447         0.673275        -2.697820
 H        -2.993625         0.098673        -3.685676
 H        -2.628079        -0.461389         0.675299
 H        -3.783261        -1.389690        -0.490999
 H        -1.738965        -1.962209        -1.885899
 H        -1.279241         1.466805         0.822533
 H        -0.071653         2.032815        -0.166883
 H        -2.183291         2.202965        -1.625917
 H        -0.867251         1.067125        -2.273403
