19
Iteration:   445charge 0 multiplicity 1
 C        -3.177457        -0.002578        -2.831084
 C        -2.472747        -0.042297        -1.530511
 C        -2.988965        -1.075480        -0.464214
 C        -1.650926        -1.199146        -1.096314
 O        -0.547517        -1.204340        -0.179850
 C         0.001338         0.010818         0.110862
 O         1.100626         0.125627         0.626378
 C        -0.763075         1.287535        -0.241114
 C        -1.965191         1.405835        -1.241384
 H        -3.885656        -0.769177        -2.963964
 H        -3.656219         0.990090        -2.915736
 H        -2.504767        -0.027589        -3.714391
 H        -3.164729        -0.861999         0.572473
 H        -3.763922        -1.595160        -0.904967
 H        -1.510935        -2.166409        -1.784765
 H        -1.105552         1.735033         0.838707
 H         0.141868         2.041519        -0.569128
 H        -2.798571         1.934370        -0.847147
 H        -1.617471         1.942491        -2.171715
