19
Iteration:  1082charge 0 multiplicity 1
 C        -3.100099        -0.062314        -2.935976
 C        -2.535997        -0.058943        -1.510114
 C        -3.043845        -0.986517        -0.481958
 C        -1.599482        -1.186051        -1.077946
 O        -0.533825        -1.153347        -0.197250
 C         0.035364         0.032825         0.082628
 O         1.150082         0.137837         0.539595
 C        -0.828671         1.280685        -0.114872
 C        -1.982416         1.321056        -1.139724
 H        -3.426024        -1.038069        -3.157100
 H        -4.058453         0.456411        -3.029507
 H        -2.501214         0.378073        -3.769410
 H        -3.160805        -0.633513         0.490786
 H        -3.834088        -1.604685        -0.802896
 H        -1.413420        -2.001097        -1.843130
 H        -1.345133         1.366372         0.801252
 H        -0.121076         2.182275        -0.017842
 H        -2.866971         1.915399        -0.831225
 H        -1.686833         1.722423        -2.027667
