19
Iteration:  1985charge 0 multiplicity 1
 C        -3.236002        -0.023488        -2.870754
 C        -2.523240        -0.062650        -1.490492
 C        -2.932454        -1.291629        -0.618400
 C        -1.614798        -1.201291        -1.226774
 O        -0.587959        -1.128018        -0.121812
 C         0.037572         0.100366         0.138021
 O         1.002518         0.141301         0.878734
 C        -0.509304         1.395287        -0.612451
 C        -2.065550         1.379600        -0.930933
 H        -3.865576        -0.846872        -3.126089
 H        -3.900477         0.903490        -2.850539
 H        -2.640998         0.190715        -3.803733
 H        -2.964700        -1.014667         0.445953
 H        -3.707923        -1.874775        -1.019310
 H        -1.333748        -2.036551        -1.934241
 H        -0.349799         2.236354         0.080886
 H        -0.055818         1.477840        -1.516123
 H        -2.606301         1.656084        -0.052722
 H        -2.305779         2.125730        -1.822094
