19
Iteration:  2830charge 0 multiplicity 1
 C        -2.571299        -0.018489        -3.003272
 C        -2.351914        -0.087726        -1.526637
 C        -3.194805        -0.960388        -0.499399
 C        -1.723040        -1.270233        -0.897441
 O        -0.750641        -1.087343         0.086951
 C        -0.028868         0.104584         0.025931
 O         1.161116         0.146673        -0.247963
 C        -1.071381         1.221179         0.266234
 C        -1.937656         1.305317        -1.007720
 H        -3.085863        -0.916359        -3.424789
 H        -3.340792         0.690238        -3.227629
 H        -1.678963         0.032183        -3.623842
 H        -3.222725        -0.559358         0.525351
 H        -4.056750        -1.522341        -0.752056
 H        -1.571707        -2.318752        -1.323426
 H        -1.604117         0.903713         1.217449
 H        -0.473455         2.108506         0.537462
 H        -2.832347         1.906348        -0.718266
 H        -1.380277         1.785512        -1.789959
