19
Iteration:  3975charge 0 multiplicity 1
 C        -3.103404         0.039446        -2.984874
 C        -2.545292        -0.012210        -1.520638
 C        -3.094322        -1.105992        -0.473967
 C        -1.687837        -1.186062        -0.983543
 O        -0.487310        -1.176990        -0.252585
 C         0.073278         0.024120         0.061904
 O         1.054755        -0.010836         0.755420
 C        -0.605374         1.381676        -0.545005
 C        -2.083944         1.369329        -0.908008
 H        -3.002262        -0.877338        -3.528071
 H        -4.135344         0.380901        -3.025213
 H        -2.577555         0.881994        -3.473987
 H        -3.340486        -0.709312         0.483549
 H        -3.763125        -1.825651        -0.867909
 H        -1.484007        -1.982685        -1.728353
 H        -0.471058         1.983111         0.401478
 H         0.013031         1.811261        -1.405007
 H        -2.708462         1.553727         0.084490
 H        -2.268265         2.242261        -1.575960
