19
Iteration:  4854
 C        -3.072867        -0.158017        -2.920447
 C        -2.467928         0.034298        -1.518780
 C        -3.102065        -0.762296        -0.403556
 C        -1.729300        -1.167419        -1.030215
 O        -0.422036        -1.188594        -0.312821
 C         0.017281         0.007528         0.065829
 O         1.124488         0.015089         0.524805
 C        -0.994128         1.239311        -0.020184
 C        -1.823208         1.341209        -1.223169
 H        -3.069016        -1.152360        -3.312764
 H        -4.131557         0.119813        -2.963661
 H        -2.682303         0.505084        -3.650318
 H        -3.104043        -0.327544         0.606813
 H        -4.025289        -1.284676        -0.632038
 H        -1.662915        -2.053464        -1.642349
 H        -1.590919         1.168479         0.923792
 H        -0.289978         2.105986         0.077361
 H        -2.596850         2.162015        -0.945773
 H        -1.234364         1.697987        -2.097109
