19
Iteration:  4833
 C        -3.196239        -0.078296        -2.913368
 C        -2.507859         0.048639        -1.513616
 C        -2.902752        -0.884505        -0.293184
 C        -1.738678        -1.213783        -1.065931
 O        -0.513565        -1.195522        -0.421592
 C         0.075110        -0.021216         0.040814
 O         1.017731         0.060512         0.762697
 C        -0.827138         1.253400        -0.119353
 C        -1.862699         1.400582        -1.339662
 H        -3.149752        -1.089015        -3.267491
 H        -4.210089         0.283620        -3.093709
 H        -2.608918         0.512840        -3.593927
 H        -2.815649        -0.367421         0.666066
 H        -3.691195        -1.639200        -0.325977
 H        -1.762468        -2.052866        -1.757389
 H        -1.551750         1.080608         0.768159
 H        -0.134259         2.117331         0.136424
 H        -2.584603         2.243540        -1.217000
 H        -1.256821         1.595835        -2.168365
