19
Iteration:  3433
 C        -3.229853         0.261554        -2.743739
 C        -2.460871        -0.040814        -1.460217
 C        -2.994116        -1.282461        -0.620710
 C        -1.625523        -1.254788        -1.250681
 O        -0.620100        -1.156023        -0.213406
 C         0.024623         0.116919         0.030590
 O         0.706202         0.245222         0.971344
 C        -0.301252         1.242032        -0.927205
 C        -1.898725         1.167573        -0.674112
 H        -3.567262        -0.625316        -3.293882
 H        -4.134003         0.827242        -2.540016
 H        -2.533142         0.806544        -3.515683
 H        -3.018398        -1.266380         0.445224
 H        -3.804491        -1.876269        -1.126569
 H        -1.436115        -1.859406        -2.114995
 H         0.172855         2.220303        -0.508890
 H         0.039173         1.052550        -1.926653
 H        -2.146557         1.330760         0.465876
 H        -2.356131         2.029245        -1.089951
