19
Iteration:   750
 C        -3.261425         0.200135        -2.762124
 C        -2.508681        -0.050491        -1.450232
 C        -2.909793        -1.246189        -0.624594
 C        -1.608044        -1.252692        -1.150179
 O        -0.502338        -1.097437        -0.230510
 C         0.070920         0.150774         0.013325
 O         0.705280         0.168123         1.023733
 C        -0.421176         1.171862        -0.907260
 C        -1.972689         1.294406        -0.781191
 H        -3.645600        -0.732243        -3.037001
 H        -4.010362         0.967071        -2.708618
 H        -2.571659         0.546869        -3.574099
 H        -3.162923        -1.209995         0.492609
 H        -3.704765        -1.839472        -1.163037
 H        -1.217501        -1.987429        -1.817461
 H         0.074671         2.167971        -0.814522
 H        -0.262723         0.812241        -1.967277
 H        -2.267670         1.415159         0.344040
 H        -2.378638         2.104315        -1.327440
