19
Iteration:  2308
 C        -2.881179        -0.038653        -2.996613
 C        -2.445435        -0.059208        -1.523723
 C        -3.168947        -1.051480        -0.628362
 C        -1.700516        -1.231309        -0.984772
 O        -0.666130        -1.076400         0.103586
 C         0.035421         0.116209         0.056504
 O         1.236943         0.100404         0.075662
 C        -0.974208         1.310093         0.069170
 C        -1.971296         1.268973        -0.993332
 H        -3.519658        -0.921903        -3.318266
 H        -3.371170         0.829918        -3.294741
 H        -1.970467         0.058066        -3.642069
 H        -3.248703        -1.059883         0.423530
 H        -3.763664        -1.730304        -1.220160
 H        -1.340011        -2.194495        -1.469100
 H        -1.151893         1.291716         1.219603
 H        -0.404834         2.377455         0.043500
 H        -2.731270         1.928830        -0.609247
 H        -1.583107         1.848168        -1.838044
