19
Iteration:  3052charge 0 multiplicity 1
 C        -3.490126        -0.153942        -2.668189
 C        -2.459081        -0.104525        -1.569551
 C        -2.566316        -0.864407        -0.197155
 C        -1.566786        -1.180151        -1.190482
 O        -0.257506        -0.983224        -0.839488
 C        -0.112897         0.034027         0.175477
 O         0.503955        -0.099849         1.178749
 C        -0.728517         1.338373        -0.305715
 C        -1.755084         1.289703        -1.421716
 H        -3.542568        -1.141351        -3.113590
 H        -4.498584         0.160886        -2.351931
 H        -3.343161         0.680219        -3.455677
 H        -2.176034        -0.251886         0.629914
 H        -3.386467        -1.616128        -0.070908
 H        -1.711587        -2.111123        -1.883556
 H        -0.982306         2.252666         0.379767
 H         0.198036         1.799279        -0.575504
 H        -2.387796         2.274885        -1.313064
 H        -1.197957         1.550108        -2.390762
