19
Iteration:   769
 C        -3.105204         0.279852        -2.684744
 C        -2.466312        -0.118387        -1.387103
 C        -2.991102        -1.217780        -0.578373
 C        -1.553658        -1.197450        -1.237896
 O        -0.543130        -1.169114        -0.214066
 C        -0.014498         0.103274         0.029140
 O         0.680350         0.285018         0.986011
 C        -0.472239         1.153748        -1.034381
 C        -1.978876         1.203258        -0.757361
 H        -3.467957        -0.596677        -3.325963
 H        -3.877202         0.978900        -2.340611
 H        -2.464038         0.731526        -3.386396
 H        -2.987806        -1.160051         0.453292
 H        -3.696311        -1.945212        -0.862068
 H        -1.266181        -1.879783        -2.129482
 H         0.072535         2.051779        -0.728292
 H        -0.188951         0.786255        -2.183746
 H        -2.132644         1.233824         0.321066
 H        -2.440931         2.056499        -1.190321
