19
Iteration:  2847
 C        -2.734756        -0.074222        -3.048300
 C        -2.347832        -0.048637        -1.518530
 C        -3.179342        -0.901017        -0.592590
 C        -1.782381        -1.329798        -0.826507
 O        -0.613637        -1.218187         0.090279
 C        -0.056130         0.099928         0.007147
 O         1.115799         0.188488        -0.150317
 C        -0.973245         1.297312         0.287170
 C        -1.916300         1.298145        -0.977730
 H        -2.915967        -1.079210        -3.454425
 H        -3.623522         0.613553        -3.300661
 H        -1.849450         0.338026        -3.560443
 H        -3.628037        -0.428275         0.306260
 H        -3.880240        -1.627612        -1.074946
 H        -1.561913        -2.066810        -1.564753
 H        -1.533598         1.111035         1.159122
 H        -0.417845         2.261360         0.236473
 H        -2.718772         2.087282        -0.781968
 H        -1.250095         1.747921        -1.825009
