19
Iteration:  4324
 C        -3.544334        -0.087798        -2.703038
 C        -2.486003        -0.018352        -1.574659
 C        -2.782212        -0.863827        -0.344170
 C        -1.608518        -1.217581        -1.264915
 O        -0.333155        -1.013582        -0.639754
 C        -0.065303        -0.018397         0.197841
 O         0.840517        -0.162258         1.034999
 C        -0.711417         1.420118        -0.171756
 C        -1.747131         1.309283        -1.396845
 H        -3.568310        -1.110770        -2.934962
 H        -4.522709         0.265704        -2.451445
 H        -3.239687         0.430264        -3.637767
 H        -2.415517        -0.428024         0.595344
 H        -3.725863        -1.483552        -0.284776
 H        -1.662977        -2.068206        -1.907950
 H        -1.145127         1.803907         0.746918
 H         0.059377         2.110288        -0.478479
 H        -2.556249         2.134674        -1.333952
 H        -1.221936         1.457157        -2.391094
