19
Iteration:  4302
 C        -3.385039        -0.094061        -2.637007
 C        -2.344236        -0.016065        -1.565898
 C        -2.850917        -0.818250        -0.353662
 C        -1.580782        -1.243049        -1.186029
 O        -0.330852        -1.105077        -0.565419
 C         0.020884         0.028660         0.014197
 O         0.692694        -0.132345         0.971713
 C        -0.738338         1.331615        -0.301725
 C        -1.831804         1.397330        -1.312660
 H        -3.532320        -1.023324        -3.109500
 H        -4.301959         0.232386        -2.170858
 H        -3.209322         0.702744        -3.403279
 H        -2.711176        -0.586373         0.713482
 H        -3.661340        -1.571142        -0.574324
 H        -1.793111        -2.103156        -1.771459
 H        -1.131651         1.587121         0.687667
 H        -0.044997         2.089707        -0.555637
 H        -2.591051         2.076584        -0.744050
 H        -1.508703         1.936868        -2.309838
