19
Iteration:    34
 C        -2.945472        -0.207068        -2.983504
 C        -2.516654        -0.027953        -1.522351
 C        -3.211492        -0.770130        -0.375037
 C        -1.882139        -1.215936        -0.912060
 O        -0.507161        -1.044552        -0.440185
 C         0.073568         0.107701         0.142784
 O         1.246768         0.141068         0.367280
 C        -1.016751         1.158390         0.136182
 C        -1.739835         1.187378        -1.166889
 H        -3.030948        -1.293818        -3.183892
 H        -3.918792         0.269543        -3.182267
 H        -2.174469         0.176049        -3.690425
 H        -3.157920        -0.156134         0.455402
 H        -4.196851        -1.180376        -0.582781
 H        -1.829990        -2.088255        -1.542001
 H        -1.756080         0.997952         0.899578
 H        -0.578174         2.090319         0.291603
 H        -2.504051         2.023952        -0.988287
 H        -1.036590         1.417355        -1.995572
