19
Iteration:  3795
 C        -3.026564         0.019055        -2.962632
 C        -2.548217        -0.015804        -1.507989
 C        -3.063415        -1.072860        -0.425320
 C        -1.702072        -1.156458        -1.099080
 O        -0.592385        -1.095568        -0.260706
 C         0.083330         0.018800         0.023804
 O         1.080241        -0.040217         0.730255
 C        -0.623772         1.319591        -0.431591
 C        -2.104941         1.363767        -0.965494
 H        -3.046401        -0.968479        -3.452530
 H        -3.966439         0.453869        -2.896414
 H        -2.503218         0.769271        -3.564931
 H        -3.038811        -0.576210         0.588050
 H        -3.683081        -1.950085        -0.519408
 H        -1.474325        -2.083212        -1.650982
 H        -0.638894         1.837054         0.513186
 H         0.064134         1.897276        -1.042970
 H        -2.697153         1.538664        -0.124749
 H        -2.219804         2.121790        -1.787005
