19
Iteration:  4169
 C        -3.087968        -0.032536        -2.918448
 C        -2.420199        -0.115899        -1.561124
 C        -3.107641        -0.792527        -0.396633
 C        -1.761069        -1.287985        -0.974172
 O        -0.493694        -1.100399        -0.403085
 C         0.031564         0.082903         0.033857
 O         1.157066         0.036854         0.433328
 C        -1.040667         1.281393         0.124049
 C        -1.746943         1.284512        -1.163247
 H        -3.407845        -1.022238        -3.242188
 H        -3.955955         0.572882        -2.879207
 H        -2.306585         0.233246        -3.655943
 H        -3.088324        -0.443090         0.624032
 H        -3.914109        -1.496184        -0.593728
 H        -1.652129        -2.264847        -1.541178
 H        -1.801976         1.078414         0.939470
 H        -0.636152         2.174571         0.330273
 H        -2.510486         2.159175        -1.131632
 H        -0.961554         1.571347        -1.922419
