19
Iteration:  1711charge 0 multiplicity 1
 C        -3.067644         0.050634        -2.847454
 C        -2.467039        -0.126134        -1.448641
 C        -3.077734        -1.149510        -0.628137
 C        -1.596130        -1.255019        -1.147287
 O        -0.565496        -1.074026        -0.223486
 C         0.012665         0.165844         0.056838
 O         0.933192         0.190832         0.877011
 C        -0.573441         1.314119        -0.721018
 C        -2.069163         1.193702        -0.743750
 H        -3.029966        -0.800480        -3.477286
 H        -4.153231         0.261205        -2.759962
 H        -2.563838         0.854207        -3.393065
 H        -3.149764        -1.011621         0.510457
 H        -3.700902        -1.906387        -1.178968
 H        -1.390323        -2.033208        -1.870953
 H        -0.032126         2.217952        -0.277284
 H         0.003206         1.411424        -1.804498
 H        -2.550737         1.433899         0.196071
 H        -2.482599         1.969217        -1.478182
