19
Iteration:  1195charge 0 multiplicity 1
 C        -3.389344        -0.059662        -2.794364
 C        -2.450406        -0.063699        -1.564704
 C        -2.814333        -1.082032        -0.432313
 C        -1.598312        -1.222227        -1.188398
 O        -0.374234        -1.112884        -0.405382
 C         0.007844         0.066522         0.140802
 O         0.948139         0.028449         0.930728
 C        -0.853659         1.397714        -0.266960
 C        -1.919447         1.346180        -1.331612
 H        -4.221391        -0.882145        -2.732809
 H        -3.936477         0.886276        -2.624428
 H        -2.903159         0.133932        -3.694426
 H        -2.705106        -0.667736         0.661581
 H        -3.767468        -1.672461        -0.582585
 H        -1.293138        -1.943523        -1.953281
 H        -1.249559         1.604524         0.746539
 H         0.127980         2.096856        -0.575582
 H        -2.754144         1.958457        -1.108755
 H        -1.486037         1.822358        -2.134576
