19
Iteration:  3164charge 0 multiplicity 1
 C        -3.078901        -0.110828        -2.925084
 C        -2.490958        -0.055889        -1.513444
 C        -3.118148        -0.852242        -0.466175
 C        -1.731977        -1.281477        -0.964108
 O        -0.422444        -1.122649        -0.393315
 C         0.054339         0.092885         0.134574
 O         1.186738         0.115556         0.534124
 C        -1.008116         1.289614         0.025386
 C        -1.851619         1.267530        -1.228484
 H        -3.853256        -0.908701        -2.894016
 H        -3.497608         0.908655        -3.174220
 H        -2.419893        -0.210964        -3.768116
 H        -3.326411        -0.574344         0.570328
 H        -3.893966        -1.470098        -0.802787
 H        -1.617302        -2.134790        -1.533389
 H        -1.775088         1.125312         0.806862
 H        -0.443445         2.249126         0.243958
 H        -2.581222         1.962661        -1.164532
 H        -1.327177         1.557642        -2.139109
