19
Iteration:    21charge 0 multiplicity 1
 C        -3.043341        -0.203511        -2.988099
 C        -2.567839        -0.028453        -1.544988
 C        -3.176528        -0.822455        -0.354651
 C        -1.776910        -1.161341        -0.902568
 O        -0.435916        -1.080047        -0.426974
 C         0.048491         0.075569         0.080496
 O         1.204200         0.065673         0.458849
 C        -1.000064         1.245999         0.144295
 C        -1.764423         1.277730        -1.235508
 H        -3.265560        -1.267543        -3.230836
 H        -4.020615         0.367555        -3.254970
 H        -2.257552         0.240077        -3.702983
 H        -3.453777        -0.348021         0.611553
 H        -3.856078        -1.636286        -0.606853
 H        -1.831147        -2.122221        -1.407021
 H        -1.620129         1.081255         0.938868
 H        -0.509157         2.226877         0.395322
 H        -2.323932         2.326787        -1.443946
 H        -1.002574         1.347116        -2.049300
