19
Iteration:  4165
 C        -3.061772        -0.051783        -2.888695
 C        -2.391011        -0.128320        -1.577835
 C        -3.161119        -0.780491        -0.414736
 C        -1.792393        -1.281797        -0.967785
 O        -0.502459        -1.071168        -0.425324
 C         0.011918         0.083644         0.068521
 O         1.158496         0.073724         0.405435
 C        -1.021689         1.208322         0.158212
 C        -1.714314         1.276922        -1.182539
 H        -3.346444        -1.103284        -3.142176
 H        -3.962265         0.613119        -2.899394
 H        -2.430167         0.401561        -3.641279
 H        -3.048962        -0.505307         0.638709
 H        -3.925476        -1.520298        -0.717179
 H        -1.664378        -2.258420        -1.379114
 H        -1.781798         1.087815         0.948455
 H        -0.463200         2.276496         0.317448
 H        -2.522533         2.107931        -1.055565
 H        -1.003757         1.526962        -1.952723
