19
Iteration:  4001
 C        -3.023777        -0.058618        -2.901617
 C        -2.472374        -0.007850        -1.533253
 C        -3.159951        -0.983148        -0.552976
 C        -1.739121        -1.231409        -1.154453
 O        -0.563567        -1.169528        -0.224925
 C         0.031770         0.003908         0.118701
 O         1.167455         0.121362         0.592052
 C        -0.713598         1.291890        -0.300525
 C        -2.033503         1.332961        -0.876083
 H        -3.279051        -1.067964        -3.239097
 H        -3.927631         0.589460        -2.865913
 H        -2.454323         0.508611        -3.559707
 H        -3.034225        -0.677747         0.503192
 H        -4.049455        -1.578423        -0.874176
 H        -1.487599        -2.047593        -1.813377
 H        -0.663153         1.909103         0.583502
 H        -0.025470         1.733092        -1.186336
 H        -2.796350         1.747788        -0.196948
 H        -1.840180         2.062308        -1.666166
