19
Iteration:   304charge 0 multiplicity 1
 C        -3.524753         0.000169        -2.708792
 C        -2.514306        -0.083982        -1.509292
 C        -2.866116        -0.944637        -0.284615
 C        -1.609011        -1.238066        -1.204227
 O        -0.326170        -0.979748        -0.637887
 C        -0.002091         0.096303         0.157397
 O         0.883965         0.036346         0.982847
 C        -0.892474         1.243877        -0.169563
 C        -1.606814         1.202887        -1.485339
 H        -4.103181        -0.888026        -2.897982
 H        -4.137137         0.978199        -2.536628
 H        -2.946836         0.040758        -3.657907
 H        -2.775559        -0.725463         0.719998
 H        -3.706624        -1.459702        -0.544827
 H        -1.399818        -2.168473        -1.806360
 H        -1.546334         1.201159         0.603877
 H        -0.299108         2.154555         0.001409
 H        -2.239744         2.109352        -1.507142
 H        -0.803340         1.121533        -2.287269
