19
Iteration:  1793charge 0 multiplicity 1
 C        -2.931636         0.065130        -2.955370
 C        -2.557922        -0.119076        -1.524629
 C        -3.048626        -1.196279        -0.589941
 C        -1.692246        -1.324845        -1.024554
 O        -0.632424        -1.141799        -0.065615
 C         0.059719         0.128367        -0.011197
 O         1.164712         0.224907         0.536729
 C        -0.724399         1.393656        -0.331480
 C        -2.141910         1.299311        -0.873300
 H        -3.414205        -0.914863        -3.334151
 H        -3.507863         0.970759        -3.220316
 H        -2.021308         0.208053        -3.572916
 H        -3.345918        -1.007639         0.421207
 H        -3.716396        -1.864226        -1.091696
 H        -1.474300        -2.259013        -1.624022
 H        -0.579927         1.916086         0.605112
 H        -0.091024         1.724119        -1.196590
 H        -2.919722         1.451877        -0.000042
 H        -2.226510         2.078844        -1.638330
