19
Iteration:  3753charge 0 multiplicity 1
 C        -3.050830        -0.022369        -2.898455
 C        -2.393126        -0.044655        -1.584746
 C        -3.151974        -0.971579        -0.559416
 C        -1.747001        -1.212941        -1.015664
 O        -0.558285        -1.167170        -0.203430
 C        -0.045528         0.016002         0.120605
 O         1.138310         0.101782         0.392317
 C        -0.742272         1.281004        -0.034437
 C        -1.935111         1.374567        -1.033378
 H        -3.677334        -0.916213        -3.061986
 H        -3.744194         0.764805        -2.979497
 H        -2.334548        -0.119858        -3.724691
 H        -3.328614        -0.683070         0.526934
 H        -3.753273        -1.836918        -0.889457
 H        -1.614485        -2.069669        -1.698568
 H        -1.041729         1.636313         0.936248
 H         0.166537         2.075994        -0.370462
 H        -2.821356         1.853928        -0.597081
 H        -1.562468         1.885209        -1.947471
