19
Iteration:  2754charge 0 multiplicity 1
 C        -2.714099        -0.091050        -2.993415
 C        -2.373319        -0.125945        -1.549319
 C        -3.222277        -0.860726        -0.546831
 C        -1.764693        -1.284165        -0.920414
 O        -0.676001        -1.075085         0.014356
 C         0.029893         0.094069         0.021938
 O         1.243719         0.158712        -0.030723
 C        -1.049340         1.244984         0.197902
 C        -1.990382         1.266224        -0.985990
 H        -3.070643        -1.102829        -3.376976
 H        -3.485711         0.666392        -3.240297
 H        -1.856949         0.238618        -3.682463
 H        -3.350275        -0.410029         0.471606
 H        -3.990473        -1.567622        -0.699230
 H        -1.446180        -2.142207        -1.630172
 H        -1.406596         0.856575         1.270280
 H        -0.455517         2.228313         0.229921
 H        -2.862577         1.817100        -0.946959
 H        -1.372228         1.745696        -1.676738
