19
Iteration:   528
 C        -3.021397        -0.098084        -3.059586
 C        -2.462054        -0.024020        -1.597221
 C        -3.058542        -0.697554        -0.258663
 C        -1.861248        -1.257702        -0.918636
 O        -0.480203        -1.249219        -0.403929
 C        -0.011355         0.036870         0.087983
 O         1.129736         0.300259         0.373477
 C        -1.026499         1.093701         0.143166
 C        -1.716822         1.247233        -1.163256
 H        -3.099591        -1.200347        -3.474558
 H        -4.078775         0.264659        -3.107831
 H        -2.241999         0.430842        -3.738269
 H        -2.833008        -0.303245         0.726293
 H        -3.920396        -1.330476        -0.285958
 H        -1.885214        -2.147657        -1.518785
 H        -1.706859         0.890668         0.873619
 H        -0.509430         1.970897         0.473404
 H        -2.483972         2.144520        -1.203526
 H        -0.958363         1.447547        -1.920027
