19
Iteration:  4815
 C        -3.296532        -0.062420        -2.842479
 C        -2.499868        -0.050166        -1.551144
 C        -2.950825        -0.848929        -0.322186
 C        -1.709556        -1.258614        -1.179817
 O        -0.397403        -1.103825        -0.519503
 C        -0.034660         0.075541         0.164883
 O         0.934957         0.017336         0.836112
 C        -0.755665         1.291962        -0.132134
 C        -1.770954         1.256742        -1.303395
 H        -3.536156        -1.114443        -3.121884
 H        -4.155722         0.567236        -2.586067
 H        -2.600795         0.380206        -3.645204
 H        -2.566460        -0.575401         0.680483
 H        -3.913861        -1.362685        -0.398343
 H        -1.724323        -2.134122        -1.773493
 H        -1.299395         1.705154         0.737905
 H        -0.065103         2.048928        -0.446289
 H        -2.499560         2.012119        -1.097099
 H        -1.245299         1.588084        -2.267549
