19
Iteration:  4213charge 0 multiplicity 1
 C        -3.213168        -0.108450        -2.858046
 C        -2.465720         0.007489        -1.512657
 C        -2.998254        -0.911972        -0.456382
 C        -1.727168        -1.218247        -1.141880
 O        -0.467393        -1.198823        -0.418513
 C        -0.014795         0.043666         0.070041
 O         1.051555         0.110944         0.716123
 C        -0.732275         1.265411        -0.101233
 C        -1.884031         1.345785        -1.147618
 H        -3.948354        -0.882704        -2.865253
 H        -3.776433         0.791133        -3.058162
 H        -2.530686        -0.307775        -3.725700
 H        -2.973227        -0.506701         0.559489
 H        -3.917801        -1.407413        -0.715782
 H        -1.624391        -2.055830        -1.877635
 H        -1.074531         1.467569         0.970456
 H        -0.071579         2.012010        -0.297326
 H        -2.737199         2.022970        -0.714127
 H        -1.485531         1.770736        -2.112329
