19
Iteration:  3781charge 0 multiplicity 1
 C        -3.062740         0.046684        -2.926352
 C        -2.463749        -0.036726        -1.572550
 C        -3.095682        -0.980860        -0.486810
 C        -1.770067        -1.295686        -1.063223
 O        -0.549797        -1.135453        -0.216513
 C         0.109764         0.069999         0.051438
 O         1.152279        -0.001616         0.650506
 C        -0.670639         1.355589        -0.297174
 C        -2.103779         1.306154        -0.988391
 H        -3.265913        -0.943685        -3.397316
 H        -4.143036         0.532774        -3.041940
 H        -2.233004         0.377658        -3.587064
 H        -3.004428        -0.766185         0.564049
 H        -3.973513        -1.536441        -0.803151
 H        -1.697874        -2.053403        -1.881412
 H        -0.795263         1.874521         0.695562
 H        -0.051370         1.967354        -0.803604
 H        -2.916135         1.677122        -0.337375
 H        -2.094032         2.060909        -1.796856
