19
Iteration:   776
 C        -3.094317         0.312617        -2.689519
 C        -2.510590        -0.106547        -1.393800
 C        -2.989876        -1.248222        -0.570342
 C        -1.592377        -1.268188        -1.267889
 O        -0.541751        -1.205386        -0.207500
 C        -0.016473         0.111032        -0.006155
 O         0.676692         0.341938         0.964509
 C        -0.433623         1.137003        -1.011126
 C        -1.955034         1.209664        -0.720700
 H        -3.324194        -0.682360        -3.218979
 H        -4.026535         0.956780        -2.700008
 H        -2.242398         0.887209        -3.221065
 H        -2.873895        -1.138704         0.520104
 H        -3.851453        -1.857953        -0.873961
 H        -1.183365        -1.938227        -2.021693
 H         0.016370         2.062892        -0.707399
 H        -0.193176         0.976450        -1.964992
 H        -2.034269         1.273778         0.347352
 H        -2.576456         2.094367        -1.189793
