19
Iteration:  2554charge 0 multiplicity 1
 C        -3.452282        -0.156203        -2.613170
 C        -2.410510        -0.041623        -1.561686
 C        -2.750249        -0.883216        -0.324598
 C        -1.555230        -1.260679        -1.137566
 O        -0.189324        -0.963679        -0.739933
 C        -0.071256         0.085053         0.101407
 O         0.475125        -0.118101         1.147769
 C        -0.574511         1.357506        -0.340909
 C        -1.869465         1.358568        -1.432925
 H        -3.534188        -1.195559        -3.005927
 H        -4.475180        -0.116522        -2.094172
 H        -3.292594         0.460499        -3.484175
 H        -2.268659        -0.651688         0.642741
 H        -3.579915        -1.541517        -0.323516
 H        -1.595488        -2.124472        -1.809243
 H        -0.840896         1.892932         0.696195
 H         0.134819         1.969614        -0.872746
 H        -2.666698         1.945472        -1.068817
 H        -1.478343         1.742742        -2.339865
