19
Iteration:  2746charge 0 multiplicity 1
 C        -2.770824        -0.095998        -3.069649
 C        -2.426831        -0.075194        -1.561231
 C        -3.144287        -0.946645        -0.480368
 C        -1.788041        -1.262405        -0.852677
 O        -0.663633        -1.095969        -0.036472
 C         0.040431         0.109377         0.010997
 O         1.259167         0.124116         0.046618
 C        -1.046308         1.247853         0.183736
 C        -1.952690         1.287672        -1.059997
 H        -2.975532        -1.097785        -3.453892
 H        -3.617219         0.607442        -3.128875
 H        -1.883725         0.475105        -3.517167
 H        -3.122992        -0.400587         0.523149
 H        -4.079966        -1.555991        -0.738511
 H        -1.465512        -2.075291        -1.527483
 H        -1.627133         0.939125         1.162711
 H        -0.571248         2.178023         0.475682
 H        -2.916113         1.945336        -0.982375
 H        -1.427633         1.941813        -1.882856
