19
Iteration:  1057charge 0 multiplicity 1
 C        -3.020453        -0.008260        -2.916483
 C        -2.436125        -0.077132        -1.520879
 C        -3.025039        -1.172494        -0.533097
 C        -1.637798        -1.311795        -1.039833
 O        -0.686885        -1.095534        -0.061998
 C         0.039945         0.092186         0.025170
 O         1.181936         0.067244         0.415586
 C        -0.818455         1.416284        -0.110601
 C        -2.029076         1.384199        -1.070052
 H        -3.543219        -0.920800        -3.187457
 H        -3.798827         0.767845        -3.137046
 H        -2.259976         0.315484        -3.743432
 H        -3.151168        -0.983330         0.563802
 H        -3.842838        -1.726282        -0.961787
 H        -1.312149        -2.043294        -1.834703
 H        -1.144769         1.733130         0.900295
 H        -0.160429         2.173533        -0.332499
 H        -3.033440         1.903522        -0.772374
 H        -1.770258         1.938191        -2.005216
