19
Iteration:  1194
 C        -3.391364        -0.055773        -2.788333
 C        -2.443057        -0.065090        -1.568279
 C        -2.816054        -1.078137        -0.434638
 C        -1.598620        -1.227362        -1.181812
 O        -0.373848        -1.101443        -0.412141
 C         0.005688         0.072150         0.144543
 O         0.944373         0.026582         0.923848
 C        -0.856641         1.391435        -0.258964
 C        -1.915968         1.338290        -1.334911
 H        -4.204267        -0.903954        -2.727867
 H        -3.915288         0.896238        -2.611464
 H        -2.897099         0.099949        -3.714627
 H        -2.708069        -0.676864         0.676925
 H        -3.778648        -1.668607        -0.588862
 H        -1.314149        -1.924428        -1.924180
 H        -1.217593         1.572786         0.715520
 H         0.113248         2.078787        -0.540054
 H        -2.778251         1.984925        -1.126429
 H        -1.454249         1.812519        -2.121375
