19
Iteration:  3303
 C        -2.719056        -0.023660        -2.937774
 C        -2.404053        -0.035626        -1.430244
 C        -3.150114        -1.128584        -0.657015
 C        -1.690766        -1.291943        -1.013882
 O        -0.805989        -1.121435         0.124356
 C        -0.010600         0.055929        -0.051131
 O         1.184019         0.072202         0.062004
 C        -0.788770         1.360373        -0.028936
 C        -2.086173         1.445248        -0.913374
 H        -3.210982        -0.965542        -3.008483
 H        -3.370002         0.777198        -3.153808
 H        -1.857449         0.110794        -3.664805
 H        -3.413387        -1.045643         0.359229
 H        -3.944538        -1.685274        -1.082797
 H        -1.282832        -1.895813        -1.766199
 H        -1.056480         1.147493         1.034702
 H        -0.087045         2.166447        -0.083831
 H        -2.991952         1.999247        -0.384934
 H        -1.868023         2.181483        -1.694857
