19
Iteration:    90charge 0 multiplicity 1
 C        -2.884517        -0.080200        -2.932915
 C        -2.428082        -0.043224        -1.501437
 C        -3.089622        -0.834006        -0.493874
 C        -1.702523        -1.232831        -0.979830
 O        -0.674466        -1.205636         0.000860
 C        -0.004968         0.038920         0.042859
 O         1.205053         0.171281         0.065335
 C        -1.013722         1.220583         0.161816
 C        -1.859080         1.333103        -1.171639
 H        -3.496963        -0.945311        -3.343731
 H        -3.427484         0.822256        -3.133564
 H        -1.966578        -0.041757        -3.528018
 H        -3.104530        -0.566235         0.592563
 H        -3.968924        -1.413752        -0.785683
 H        -1.707924        -2.201791        -1.516496
 H        -1.749095         0.980309         0.966848
 H        -0.437189         2.013002         0.458944
 H        -2.770451         1.972042        -1.073330
 H        -1.290507         1.689874        -2.050713
