19
Iteration:  3498
 C        -3.188226         0.189704        -2.759802
 C        -2.518758        -0.006114        -1.396940
 C        -2.850167        -1.192527        -0.477573
 C        -1.675317        -1.252407        -1.307009
 O        -0.519408        -1.177414        -0.419570
 C        -0.030369         0.079349         0.040617
 O         0.641932         0.161273         1.085039
 C        -0.410239         1.182041        -0.870451
 C        -1.929955         1.348997        -0.738105
 H        -3.260437        -0.786763        -3.233715
 H        -4.130063         0.702081        -2.741565
 H        -2.382599         0.718351        -3.371039
 H        -2.573078        -1.080978         0.561213
 H        -3.709825        -1.762930        -0.878096
 H        -1.489883        -1.959354        -2.068511
 H         0.157456         2.161065        -0.631499
 H        -0.116442         0.948752        -1.854872
 H        -2.212590         1.624251         0.241100
 H        -2.246821         2.090192        -1.391006
