19
Iteration:  4483
 C        -2.954462        -0.018840        -3.048313
 C        -2.425459        -0.035308        -1.500634
 C        -3.117581        -0.888520        -0.417166
 C        -1.787270        -1.272838        -1.024470
 O        -0.665721        -1.221673        -0.055100
 C        -0.009575        -0.016390         0.107520
 O         1.216168         0.176319         0.176289
 C        -0.885426         1.201848         0.117646
 C        -1.855442         1.344210        -1.129614
 H        -2.889947        -1.008261        -3.609230
 H        -3.989448         0.405535        -3.142518
 H        -2.380119         0.717876        -3.624409
 H        -3.064720        -0.266924         0.432553
 H        -4.017373        -1.445028        -0.715104
 H        -1.632958        -1.995095        -1.791518
 H        -1.474337         1.174189         0.955785
 H        -0.202376         1.997044         0.282981
 H        -2.617766         2.056023        -0.811892
 H        -1.337840         1.898677        -2.024320
