19
Iteration:  3812
 C        -3.085253         0.002891        -2.928028
 C        -2.569332         0.004759        -1.462348
 C        -3.004260        -1.062154        -0.472883
 C        -1.709585        -1.185150        -1.116494
 O        -0.522105        -1.155843        -0.265683
 C        -0.004478         0.087860         0.053353
 O         0.972994        -0.016315         0.755782
 C        -0.531777         1.363523        -0.506518
 C        -2.053113         1.288707        -0.851520
 H        -2.794186        -0.974065        -3.336546
 H        -4.183142         0.302048        -3.266833
 H        -2.480006         0.786114        -3.422855
 H        -3.056171        -0.817295         0.569037
 H        -3.820059        -1.658162        -0.853970
 H        -1.628837        -1.774020        -2.033827
 H        -0.190123         2.212330         0.162445
 H         0.053757         1.440618        -1.493685
 H        -2.701810         1.722938        -0.010546
 H        -2.148512         2.086699        -1.576525
