19
Iteration:  3056
 C        -3.491473        -0.155289        -2.691371
 C        -2.462589        -0.059459        -1.582121
 C        -2.602881        -0.859842        -0.211983
 C        -1.599504        -1.221310        -1.203761
 O        -0.245703        -0.955865        -0.836573
 C        -0.105811         0.050179         0.197392
 O         0.523393        -0.088957         1.189739
 C        -0.695890         1.323940        -0.323800
 C        -1.758234         1.266943        -1.396473
 H        -3.569338        -1.141350        -3.187763
 H        -4.510498         0.060212        -2.271649
 H        -3.283698         0.558832        -3.410673
 H        -2.121150        -0.387416         0.613983
 H        -3.418105        -1.531829        -0.004930
 H        -1.719709        -2.085613        -1.873721
 H        -0.971544         2.028202         0.438226
 H         0.275881         1.888871        -0.651050
 H        -2.495791         2.290316        -1.283536
 H        -1.262628         1.475968        -2.320390
