19
Iteration:   701charge 0 multiplicity 1
 C        -3.194366        -0.035786        -2.865137
 C        -2.471429        -0.062189        -1.475788
 C        -2.942691        -1.020321        -0.518616
 C        -1.632581        -1.251337        -1.169135
 O        -0.507798        -1.129418        -0.298890
 C        -0.024484         0.076910         0.080530
 O         0.911429         0.018711         0.856743
 C        -0.552240         1.337552        -0.532291
 C        -2.036400         1.412577        -0.913820
 H        -3.359404        -1.105834        -3.261926
 H        -4.118661         0.546149        -2.685919
 H        -2.649786         0.448876        -3.672457
 H        -2.942318        -0.794735         0.531489
 H        -3.703624        -1.724858        -0.720179
 H        -1.339619        -2.118247        -1.735175
 H        -0.310274         2.212861         0.088514
 H        -0.097610         1.600014        -1.613361
 H        -2.683742         1.724530        -0.159832
 H        -2.228491         2.075754        -1.801339
