19
Iteration:  1402
 C        -2.843386         0.122239        -2.901499
 C        -2.496723        -0.105954        -1.429790
 C        -3.150859        -1.317450        -0.638158
 C        -1.688486        -1.297905        -1.029296
 O        -0.671938        -1.105088        -0.082640
 C         0.070902         0.133984         0.008308
 O         1.069292         0.198325         0.613405
 C        -0.609266         1.415199        -0.662103
 C        -2.146367         1.264733        -0.686150
 H        -2.693935        -0.828216        -3.575152
 H        -3.937728         0.388104        -3.023040
 H        -2.311803         0.944700        -3.402818
 H        -3.463955        -1.024034         0.389944
 H        -3.783551        -2.109743        -1.159838
 H        -1.381763        -2.028120        -1.842418
 H        -0.267332         2.191890        -0.097249
 H        -0.160582         1.505284        -1.596096
 H        -2.742103         1.314235         0.357418
 H        -2.472062         2.163491        -1.313105
