19
Iteration:  4825charge 0 multiplicity 1
 C        -3.242165        -0.070054        -2.868426
 C        -2.517317        -0.013331        -1.512131
 C        -2.889423        -0.898844        -0.289206
 C        -1.737995        -1.241979        -1.151913
 O        -0.481049        -1.126549        -0.476172
 C        -0.001606        -0.017956         0.089278
 O         1.010486         0.059102         0.832151
 C        -0.842183         1.275734        -0.177090
 C        -1.762636         1.346270        -1.308167
 H        -3.420533        -1.068467        -3.309028
 H        -4.238634         0.376609        -3.031859
 H        -2.602789         0.499343        -3.647024
 H        -2.754196        -0.381188         0.688302
 H        -3.880327        -1.352421        -0.329741
 H        -1.669004        -2.126800        -1.711481
 H        -1.322769         1.385758         0.860068
 H        -0.082748         2.056311        -0.113476
 H        -2.459235         2.078650        -1.069095
 H        -1.342316         1.634306        -2.266832
