19
Iteration:   460
 C        -3.190851        -0.073302        -2.951527
 C        -2.529502         0.011081        -1.502092
 C        -3.029608        -0.960905        -0.525883
 C        -1.647357        -1.213653        -1.108571
 O        -0.562012        -1.136898        -0.162115
 C         0.017567         0.051698         0.097640
 O         1.145253         0.087081         0.574260
 C        -0.783074         1.298861        -0.130443
 C        -1.913285         1.281430        -1.128237
 H        -3.843047        -1.053477        -3.114230
 H        -3.958664         0.777956        -3.056550
 H        -2.407815        -0.244337        -3.707089
 H        -2.862890        -0.725410         0.557481
 H        -3.902693        -1.712478        -0.684122
 H        -1.402419        -1.765271        -1.956836
 H        -1.112949         1.562682         0.809164
 H        -0.008587         2.082714        -0.433157
 H        -2.650624         2.105708        -0.737216
 H        -1.490477         1.611018        -2.124289
