19
Iteration:  2341charge 0 multiplicity 1
 C        -2.733174        -0.101298        -2.930367
 C        -2.370985        -0.045097        -1.495420
 C        -3.156586        -0.961751        -0.525521
 C        -1.724760        -1.262098        -0.996940
 O        -0.652183        -1.173504        -0.015010
 C        -0.050430         0.135632         0.019650
 O         1.151736         0.122519        -0.041327
 C        -1.052079         1.308028         0.201056
 C        -1.918020         1.342932        -0.998136
 H        -2.790048        -1.135451        -3.342735
 H        -3.567493         0.509271        -3.135411
 H        -1.841231         0.268440        -3.492057
 H        -3.189571        -0.694625         0.515798
 H        -3.992496        -1.534206        -0.852171
 H        -1.609280        -2.189494        -1.614540
 H        -1.521985         1.095030         1.232361
 H        -0.527290         2.359169         0.119282
 H        -2.713878         1.998685        -0.828724
 H        -1.393488         1.728951        -1.849559
