19
Iteration:  2852charge 0 multiplicity 1
 C        -2.758001        -0.070589        -3.017533
 C        -2.348636        -0.049068        -1.515893
 C        -3.231639        -0.863380        -0.618594
 C        -1.736362        -1.314728        -0.835247
 O        -0.601452        -1.223717         0.065826
 C        -0.082320         0.091792         0.051061
 O         1.134456         0.204166        -0.127249
 C        -0.976567         1.275624         0.250388
 C        -1.907401         1.314485        -1.002902
 H        -2.902268        -1.054246        -3.527583
 H        -3.697220         0.397966        -3.238232
 H        -1.900889         0.278202        -3.615223
 H        -3.663096        -0.563184         0.333243
 H        -3.825222        -1.652468        -1.035567
 H        -1.534980        -2.202996        -1.534897
 H        -1.508160         1.189343         1.275500
 H        -0.267714         2.106109         0.252911
 H        -2.655080         2.125001        -0.660948
 H        -1.307334         1.666930        -1.856643
