19
Iteration:  3889
 C        -3.066762         0.399142        -2.654467
 C        -2.500311        -0.106560        -1.393146
 C        -3.072359        -1.278942        -0.604958
 C        -1.604981        -1.242364        -1.213512
 O        -0.616899        -1.107109        -0.219874
 C        -0.007061         0.101947         0.007979
 O         0.723512         0.309856         0.957742
 C        -0.395689         1.119787        -0.981795
 C        -1.925460         1.102811        -0.761887
 H        -3.685928        -0.414919        -2.994399
 H        -3.734148         1.307220        -2.407218
 H        -2.357677         0.702975        -3.402511
 H        -2.797174        -1.351792         0.431322
 H        -3.719100        -1.970911        -1.022059
 H        -1.352098        -1.924535        -2.049549
 H         0.158058         2.136691        -0.914702
 H        -0.230847         0.632434        -2.103569
 H        -2.110358         1.145136         0.379172
 H        -2.244786         1.935315        -1.331170
