19
Iteration:    17charge 0 multiplicity 1
 C        -3.061828        -0.198321        -2.983421
 C        -2.557445        -0.031633        -1.546731
 C        -3.168096        -0.814732        -0.352499
 C        -1.762034        -1.169848        -0.924008
 O        -0.431569        -1.088148        -0.417848
 C         0.055596         0.082691         0.085986
 O         1.175341         0.059439         0.472424
 C        -0.985604         1.251613         0.121339
 C        -1.778246         1.302226        -1.250139
 H        -3.349322        -1.231978        -3.208952
 H        -3.976306         0.354716        -3.241486
 H        -2.324043         0.246874        -3.651369
 H        -3.437871        -0.392981         0.642861
 H        -3.719843        -1.731838        -0.608043
 H        -1.863533        -2.150224        -1.407765
 H        -1.618006         1.076061         1.095672
 H        -0.452570         2.191730         0.412381
 H        -2.266524         2.233340        -1.501307
 H        -1.016958         1.389183        -2.065176
