19
Iteration:  2945
 C        -3.332247        -0.089399        -2.859714
 C        -2.469167        -0.080534        -1.560487
 C        -2.950750        -0.893726        -0.378111
 C        -1.695276        -1.290869        -1.059776
 O        -0.303070        -1.106632        -0.545146
 C         0.020329         0.106998         0.028911
 O         0.902906         0.114509         0.872131
 C        -0.841371         1.245525        -0.081358
 C        -1.760185         1.323359        -1.298188
 H        -4.004569        -0.946081        -2.903035
 H        -4.052638         0.755959        -2.842410
 H        -2.693674        -0.197817        -3.705598
 H        -3.019301        -0.395096         0.628024
 H        -3.869719        -1.452644        -0.508272
 H        -1.662670        -2.156045        -1.782602
 H        -1.479951         1.184800         0.806235
 H        -0.092606         2.129433        -0.045838
 H        -2.455519         2.034898        -1.148893
 H        -1.138275         1.645977        -2.073979
