19
Iteration:  1982charge 0 multiplicity 1
 C        -3.212888        -0.003294        -2.889869
 C        -2.545097        -0.079527        -1.480827
 C        -2.938962        -1.252409        -0.617144
 C        -1.583332        -1.202598        -1.209519
 O        -0.596464        -1.122845        -0.117333
 C         0.016701         0.113486         0.114546
 O         0.995329         0.133020         0.863504
 C        -0.502463         1.390877        -0.620052
 C        -2.079220         1.368953        -0.900721
 H        -3.776100        -0.923629        -3.021185
 H        -3.848155         0.840220        -2.887393
 H        -2.675231         0.197472        -3.722898
 H        -2.982125        -1.151077         0.468389
 H        -3.724983        -1.938969        -1.070041
 H        -1.234323        -1.899978        -1.932985
 H        -0.340983         2.214542         0.081631
 H        -0.006856         1.352239        -1.670153
 H        -2.639913         1.696287        -0.037931
 H        -2.235621         2.011363        -1.732466
