19
Iteration:  3979charge 0 multiplicity 1
 C        -3.104795         0.043703        -2.961906
 C        -2.557479         0.005550        -1.526748
 C        -3.093957        -1.079722        -0.488627
 C        -1.667737        -1.198909        -0.974224
 O        -0.499726        -1.197778        -0.251712
 C         0.085387         0.033203         0.051186
 O         1.072656         0.012586         0.741925
 C        -0.595750         1.355421        -0.483654
 C        -2.106591         1.371263        -0.928078
 H        -2.957885        -0.938373        -3.437225
 H        -4.141159         0.427914        -3.130320
 H        -2.585980         0.803120        -3.492269
 H        -3.383418        -0.671546         0.487011
 H        -3.801613        -1.799767        -0.950264
 H        -1.519087        -1.950065        -1.748895
 H        -0.415117         1.889159         0.443218
 H         0.045642         1.796684        -1.380737
 H        -2.748349         1.494954        -0.062071
 H        -2.388819         2.123664        -1.664527
