19
Iteration:   556charge 0 multiplicity 1
 C        -3.049042        -0.052865        -2.907813
 C        -2.422712        -0.085673        -1.567060
 C        -3.088117        -0.788058        -0.445303
 C        -1.750316        -1.273376        -0.920043
 O        -0.520009        -1.160183        -0.315047
 C        -0.041550         0.093662         0.126999
 O         1.164170         0.167497         0.278042
 C        -1.059704         1.231970         0.174572
 C        -1.733223         1.220029        -1.214735
 H        -3.305738        -0.984744        -3.322622
 H        -3.903084         0.631779        -2.817444
 H        -2.304557         0.188131        -3.591820
 H        -3.200920        -0.329043         0.564578
 H        -3.926014        -1.547486        -0.698377
 H        -1.675876        -2.153657        -1.547309
 H        -1.824582         1.036892         1.037861
 H        -0.392740         2.229385         0.454338
 H        -2.404173         2.011720        -1.387470
 H        -0.852561         1.239370        -1.916223
