19
Iteration:  3986charge 0 multiplicity 1
 C        -3.088333         0.044932        -2.913771
 C        -2.560697         0.012987        -1.498931
 C        -3.094702        -0.996223        -0.549246
 C        -1.691640        -1.226416        -1.033627
 O        -0.512472        -1.204976        -0.228272
 C         0.091519         0.036149         0.018379
 O         1.110019         0.071442         0.706510
 C        -0.587316         1.284883        -0.360862
 C        -2.145693         1.324761        -0.963215
 H        -2.977043        -0.947606        -3.307357
 H        -4.127469         0.311785        -3.057495
 H        -2.400792         0.615823        -3.617208
 H        -3.345474        -0.697622         0.435681
 H        -3.791470        -1.680094        -0.947532
 H        -1.670210        -2.012731        -1.816664
 H        -0.371694         2.038361         0.459466
 H         0.158897         1.687553        -1.155185
 H        -2.926605         1.599892        -0.090585
 H        -2.406423         2.029471        -1.777543
