19
Iteration:  1592
 C        -2.989827         0.049838        -2.934591
 C        -2.562034        -0.087760        -1.450819
 C        -2.989140        -1.088631        -0.426311
 C        -1.665613        -1.295291        -1.123547
 O        -0.406882        -1.184112        -0.355945
 C        -0.011213         0.162462         0.103751
 O         0.890832         0.140543         0.857742
 C        -0.614769         1.357455        -0.621069
 C        -2.169742         1.257755        -0.836014
 H        -2.974428        -0.895000        -3.459434
 H        -4.025739         0.450144        -3.192405
 H        -2.283446         0.816834        -3.426613
 H        -2.845974        -0.610379         0.570255
 H        -3.818659        -1.826891        -0.744150
 H        -1.465295        -1.931675        -1.996566
 H        -0.266687         2.377397        -0.375214
 H        -0.180108         1.201603        -1.531025
 H        -2.558857         1.345833         0.283673
 H        -2.523951         2.081339        -1.527918
