19
Iteration:   198charge 0 multiplicity 1
 C        -2.963578        -0.156553        -2.984435
 C        -2.472452        -0.066596        -1.538620
 C        -3.144669        -0.892128        -0.381499
 C        -1.803733        -1.223375        -0.971076
 O        -0.500771        -1.130697        -0.391956
 C         0.038659         0.050754         0.102350
 O         1.203098         0.023069         0.506770
 C        -0.851186         1.334734        -0.009912
 C        -2.009644         1.379281        -1.101153
 H        -3.068865        -1.160177        -3.407931
 H        -3.966868         0.280468        -3.082493
 H        -2.398739         0.551872        -3.529272
 H        -3.261862        -0.350872         0.557235
 H        -3.873681        -1.583693        -0.710822
 H        -1.793321        -2.112241        -1.664902
 H        -0.968123         1.802342         0.928528
 H        -0.076386         1.858361        -0.401895
 H        -2.905715         1.977867        -0.854789
 H        -1.661923         1.924561        -1.907469
