19
Iteration:  1072
 C        -3.089904        -0.044886        -2.916272
 C        -2.474745        -0.020858        -1.531397
 C        -3.029875        -1.063028        -0.523434
 C        -1.674294        -1.189962        -1.092143
 O        -0.540693        -1.137823        -0.088690
 C         0.040681         0.090293         0.038793
 O         1.166549         0.083904         0.509072
 C        -0.883995         1.274980        -0.122925
 C        -2.024600         1.356992        -1.146342
 H        -3.355070        -1.033363        -3.247895
 H        -3.894417         0.665247        -2.826596
 H        -2.312061         0.271396        -3.622506
 H        -2.966310        -0.820455         0.488814
 H        -3.749021        -1.817544        -0.775885
 H        -1.460137        -2.059145        -1.761753
 H        -1.234015         1.370323         0.889836
 H        -0.177959         2.185699        -0.468659
 H        -2.772097         2.009461        -0.727369
 H        -1.673135         1.833467        -1.994041
