19
Iteration:  4117
 C        -2.998733        -0.070490        -2.990523
 C        -2.449869        -0.006660        -1.534182
 C        -3.033981        -0.788090        -0.363412
 C        -1.801130        -1.226444        -0.993250
 O        -0.535139        -1.151209        -0.217920
 C        -0.012892         0.026548         0.041685
 O         1.187901         0.130736         0.242779
 C        -1.071260         1.109911         0.203853
 C        -1.770448         1.331614        -1.195657
 H        -3.128144        -1.117188        -3.243292
 H        -4.007264         0.402186        -3.001314
 H        -2.426554         0.528493        -3.786873
 H        -3.016840        -0.287555         0.581102
 H        -3.930049        -1.280744        -0.657714
 H        -1.692962        -2.092120        -1.673403
 H        -1.717743         0.616853         0.930013
 H        -0.669701         1.980581         0.660231
 H        -2.467092         2.073848        -1.188555
 H        -0.946122         1.573227        -1.896001
