19
Iteration:  4832
 C        -3.200292        -0.075383        -2.907391
 C        -2.506376         0.043264        -1.509616
 C        -2.894297        -0.888269        -0.291730
 C        -1.741358        -1.216497        -1.073398
 O        -0.515327        -1.186225        -0.429620
 C         0.071985        -0.026446         0.047590
 O         1.016312         0.062810         0.771979
 C        -0.830863         1.257989        -0.127127
 C        -1.852972         1.391508        -1.335303
 H        -3.192924        -1.089097        -3.284838
 H        -4.213412         0.289496        -3.127141
 H        -2.635198         0.504047        -3.584570
 H        -2.823831        -0.364599         0.650981
 H        -3.714037        -1.613279        -0.317139
 H        -1.740194        -2.086882        -1.768654
 H        -1.517203         1.106691         0.761487
 H        -0.114717         2.102743         0.123035
 H        -2.600223         2.260630        -1.191279
 H        -1.235741         1.613766        -2.222272
