19
Iteration:  2142
 C        -3.431440        -0.015315        -2.629283
 C        -2.535267        -0.098300        -1.522727
 C        -2.748264        -1.022893        -0.392203
 C        -1.568637        -1.294711        -1.267490
 O        -0.319915        -1.048029        -0.587413
 C        -0.045642         0.065731         0.137765
 O         0.792648         0.090037         0.991451
 C        -0.842832         1.335663        -0.171183
 C        -1.724536         1.285834        -1.456881
 H        -4.089951        -0.898525        -2.556494
 H        -4.058750         0.845485        -2.590464
 H        -2.833698         0.165466        -3.577472
 H        -2.427018        -0.894736         0.676585
 H        -3.671351        -1.621360        -0.502035
 H        -1.501464        -2.119555        -1.884925
 H        -1.665763         1.638789         0.513745
 H        -0.074235         2.145396         0.055824
 H        -2.508835         2.107309        -1.328274
 H        -1.193806         1.471979        -2.494421
