19
Iteration:  1901charge 0 multiplicity 1
 C        -2.699620         0.271978        -2.898269
 C        -2.462790        -0.130919        -1.460032
 C        -3.244051        -1.202612        -0.638252
 C        -1.737107        -1.333183        -0.941921
 O        -0.622689        -1.118348        -0.021309
 C         0.037269         0.147513        -0.034098
 O         1.056586         0.286193         0.609692
 C        -0.681781         1.278533        -0.827836
 C        -2.165658         1.091782        -0.613316
 H        -2.149301        -0.417721        -3.525872
 H        -3.711412         0.316168        -3.107377
 H        -2.118780         1.168309        -2.925659
 H        -3.459544        -0.910267         0.384019
 H        -3.900156        -1.953687        -0.991809
 H        -1.492828        -2.023063        -1.802208
 H        -0.185682         2.248402        -0.834044
 H        -0.353164         1.087928        -1.942301
 H        -2.493125         1.114216         0.431158
 H        -2.863739         1.796383        -0.968742
