19
Iteration:  3370charge 0 multiplicity 1
 C        -2.939890         0.028768        -2.913932
 C        -2.480976        -0.039302        -1.462272
 C        -3.137409        -1.031037        -0.585686
 C        -1.747214        -1.233578        -1.098577
 O        -0.568734        -1.136525        -0.218185
 C         0.022345         0.068608         0.003670
 O         1.073786         0.101274         0.626398
 C        -0.555731         1.307565        -0.432685
 C        -2.136671         1.242997        -0.769681
 H        -2.920646        -0.974496        -3.388328
 H        -3.882439         0.478385        -3.151813
 H        -2.187346         0.618909        -3.495903
 H        -3.355538        -0.706331         0.363010
 H        -3.933506        -1.658948        -0.957499
 H        -1.545718        -2.042947        -1.713659
 H        -0.582500         1.803495         0.526775
 H         0.082117         1.839294        -1.210058
 H        -2.824616         1.529231         0.139694
 H        -2.447158         2.131278        -1.376915
