19
Iteration:   298
 C        -3.513248         0.005553        -2.685292
 C        -2.478108        -0.071044        -1.548345
 C        -2.889959        -0.908040        -0.314711
 C        -1.649342        -1.290941        -1.221672
 O        -0.328302        -1.006672        -0.645278
 C         0.007216         0.135607         0.154327
 O         0.887093         0.063945         0.976453
 C        -0.879051         1.258016        -0.123077
 C        -1.570275         1.179626        -1.492275
 H        -4.315089        -0.799831        -2.802377
 H        -4.105488         0.878095        -2.555433
 H        -2.963367         0.005692        -3.622998
 H        -2.614468        -0.878881         0.825777
 H        -3.738937        -1.704220        -0.505426
 H        -1.501756        -2.206944        -1.802599
 H        -1.765094         1.187951         0.831734
 H        -0.404966         2.214478         0.119969
 H        -2.165406         2.103269        -1.533470
 H        -0.908941         1.169554        -2.332058
