19
Iteration:  4322charge 0 multiplicity 1
 C        -3.534774        -0.086970        -2.696785
 C        -2.470580        -0.022531        -1.577216
 C        -2.772816        -0.868692        -0.349791
 C        -1.606184        -1.205496        -1.247357
 O        -0.344122        -1.018024        -0.631765
 C        -0.048741        -0.012023         0.192097
 O         0.822000        -0.171906         1.023999
 C        -0.705230         1.418316        -0.189296
 C        -1.762962         1.310820        -1.394637
 H        -3.547290        -1.107888        -2.931583
 H        -4.488220         0.259673        -2.414620
 H        -3.261370         0.456927        -3.598595
 H        -2.430676        -0.378217         0.561489
 H        -3.732455        -1.419372        -0.339508
 H        -1.608220        -2.066090        -1.911163
 H        -1.132318         1.807520         0.808507
 H         0.039102         2.129494        -0.457127
 H        -2.589048         2.072196        -1.373683
 H        -1.300386         1.461943        -2.309207
