19
Iteration:  1765
 C        -2.835038        -0.051293        -2.862329
 C        -2.504371        -0.064062        -1.491087
 C        -3.084999        -1.083431        -0.548528
 C        -1.707896        -1.222522        -1.016909
 O        -0.496226        -1.112412        -0.290227
 C        -0.022281         0.127768         0.094277
 O         1.081301         0.119266         0.585527
 C        -0.768701         1.371739        -0.424759
 C        -2.191930         1.252658        -0.847946
 H        -2.826816        -1.041129        -3.289009
 H        -3.768192         0.439668        -3.226704
 H        -2.004880         0.382459        -3.429557
 H        -3.227260        -0.737041         0.550703
 H        -3.920387        -1.696429        -0.985827
 H        -1.517198        -2.025332        -1.697176
 H        -0.488741         2.075726         0.424112
 H        -0.056110         1.577516        -1.324210
 H        -2.839819         1.360545        -0.024157
 H        -2.553871         2.170403        -1.399551
