19
Iteration:  4389charge 0 multiplicity 1
 C        -3.326807         0.013447        -2.818553
 C        -2.409297        -0.039397        -1.611027
 C        -2.787243        -0.816547        -0.240267
 C        -1.695474        -1.326052        -1.111536
 O        -0.399094        -1.093777        -0.628720
 C        -0.084253        -0.007170         0.152486
 O         0.975998        -0.037882         0.788123
 C        -0.960154         1.306346        -0.031383
 C        -1.769240         1.311490        -1.352352
 H        -4.012859        -0.754359        -2.639290
 H        -3.829911         0.932600        -2.893530
 H        -2.850514        -0.145579        -3.801208
 H        -2.485679        -0.358852         0.714735
 H        -3.711326        -1.450219        -0.394870
 H        -1.481110        -2.188906        -1.705714
 H        -1.755933         1.564036         0.782619
 H        -0.202900         2.068505         0.151146
 H        -2.576571         2.093631        -1.370802
 H        -1.152773         1.618421        -2.096000
