19
Iteration:  4156charge 0 multiplicity 1
 C        -3.043976        -0.083380        -2.886255
 C        -2.386624        -0.024515        -1.555537
 C        -3.179790        -0.795646        -0.454485
 C        -1.821280        -1.284008        -0.957769
 O        -0.503782        -1.056947        -0.442505
 C        -0.040129         0.065358         0.158223
 O         1.176976         0.162090         0.357727
 C        -0.954608         1.138229         0.196311
 C        -1.686049         1.207049        -1.210617
 H        -3.307589        -1.093962        -3.261855
 H        -3.981491         0.450838        -2.761875
 H        -2.493247         0.390044        -3.650332
 H        -3.305694        -0.418606         0.564620
 H        -4.040935        -1.418198        -0.774320
 H        -1.924616        -2.293121        -1.382429
 H        -1.644046         1.029314         1.081685
 H        -0.282931         2.027033         0.414167
 H        -2.599397         2.010848        -1.171621
 H        -1.054974         1.546203        -2.039638
