19
Iteration:   904charge 0 multiplicity 1
 C        -4.066941        -0.299073         1.824882
 C        -2.546520        -0.105635         1.540910
 C        -1.819211        -1.368078         0.989780
 C        -0.312118        -1.124066         0.853259
 C         0.140505         0.114860         0.017050
 O         1.095509         0.064256        -0.766271
 C        -0.662781         1.446321         0.392034
 C        -1.987997         1.309196         1.257152
 O        -1.706825         0.569312         2.560806
 H        -4.191291        -1.149223         2.522503
 H        -4.554671         0.549938         2.196735
 H        -4.577383        -0.544043         0.843633
 H        -2.039566        -2.158738         1.769820
 H        -2.358645        -1.665723         0.051440
 H        -0.101144        -0.894596         1.927763
 H         0.298030        -1.846012         0.479139
 H         0.031260         1.991565         0.952060
 H        -0.896915         1.968788        -0.551590
 H        -2.613881         2.200210         1.365737
