19
Iteration:  2803charge 0 multiplicity 1
 C        -3.852819        -0.282767         2.076321
 C        -2.481718        -0.122397         1.533917
 C        -1.741525        -1.476990         1.320998
 C        -0.666368        -1.301521         0.186443
 C         0.027945         0.126491         0.069698
 O         1.172667         0.424720         0.330723
 C        -0.948487         1.307462        -0.118833
 C        -1.994616         1.144923         0.974558
 O        -1.410782         0.733819         2.261108
 H        -4.003268        -1.075154         2.727004
 H        -4.378864         0.580365         2.572316
 H        -4.483330        -0.477920         1.245358
 H        -1.060909        -1.670790         2.186146
 H        -2.423912        -2.274000         1.095038
 H        -0.015444        -2.126498         0.101892
 H        -1.137226        -1.373836        -0.822712
 H        -0.407859         2.195770         0.024200
 H        -1.481778         1.332209        -1.167744
 H        -2.739049         1.900333         0.853755
