19
Iteration:  4935charge 0 multiplicity 1
 C        -3.735946        -0.516722         1.460035
 C        -2.294374        -0.128725         1.590190
 C        -1.290668        -1.190458         1.784084
 C        -0.496343        -1.299215         0.454929
 C        -0.091852         0.013506        -0.017875
 O         0.650411         0.248776        -0.971930
 C        -0.456734         1.286471         0.839977
 C        -1.855063         1.226834         1.156429
 O        -2.245153         0.900590         2.431360
 H        -4.233262        -0.164777         2.312186
 H        -4.139775         0.135716         0.605982
 H        -3.648452        -1.548519         1.211838
 H        -0.721564        -0.868647         2.765663
 H        -1.575769        -2.191686         2.127647
 H         0.361241        -1.919896         0.488170
 H        -1.231988        -1.648520        -0.303675
 H        -0.002065         1.217411         1.866291
 H        -0.059699         2.305829         0.506453
 H        -2.464849         1.880971         0.616463
