19
Iteration:  1134
 C        -3.875607        -0.202730         1.513264
 C        -2.374294        -0.182313         1.491277
 C        -1.626991        -1.395667         1.131512
 C        -0.164275        -1.102796         0.998075
 C         0.051652         0.102524         0.119150
 O         0.603192         0.050613        -1.006074
 C        -0.493229         1.430531         0.678764
 C        -1.867722         1.189101         1.241570
 O        -1.997738         0.641684         2.585458
 H        -4.300238        -0.487844         2.439598
 H        -4.300580         0.885970         1.343830
 H        -4.295303        -0.698073         0.652122
 H        -1.786125        -1.984175         1.963972
 H        -2.177374        -1.730396         0.256351
 H         0.285199        -1.038814         1.962136
 H         0.243650        -1.938004         0.327906
 H         0.079970         1.851799         1.596211
 H        -0.559955         2.245609        -0.067317
 H        -2.540209         2.021054         0.940103
