19
Iteration:   238
 C        -3.986865        -0.094428         1.804387
 C        -2.544793        -0.000440         1.512871
 C        -1.878519        -1.276107         0.977426
 C        -0.329628        -1.248100         0.961155
 C         0.130117        -0.021358         0.138109
 O         1.058448         0.018797        -0.600826
 C        -0.703862         1.244076         0.221324
 C        -1.870636         1.261953         1.137993
 O        -1.723451         0.704979         2.541851
 H        -4.242272        -0.928179         2.378008
 H        -4.432172         0.818987         2.216185
 H        -4.500632        -0.343707         0.870953
 H        -2.210960        -2.146038         1.644188
 H        -2.343505        -1.566913        -0.058101
 H        -0.027350        -1.115676         1.965062
 H         0.086780        -2.225412         0.536844
 H        -0.026953         1.933141         0.703466
 H        -0.799892         1.703222        -0.809891
 H        -2.499640         2.176918         1.236660
