19
Iteration:  2318charge 0 multiplicity 1
 C        -3.874943        -0.262973         1.482149
 C        -2.399579        -0.102366         1.441042
 C        -1.628490        -1.357886         1.018055
 C        -0.129577        -1.077505         1.160758
 C         0.023534         0.051435         0.193598
 O         0.457032        -0.038042        -0.936264
 C        -0.542991         1.449520         0.646447
 C        -1.841777         1.216497         1.228543
 O        -1.843148         0.714315         2.544216
 H        -4.205535        -0.631145         2.467536
 H        -4.334896         0.736370         1.313199
 H        -4.213075        -0.962010         0.699630
 H        -1.955672        -2.262901         1.545424
 H        -1.832763        -1.653243        -0.034026
 H         0.270388        -0.793201         2.099432
 H         0.334064        -1.966485         0.718878
 H         0.194538         1.974597         1.458464
 H        -0.574290         1.999437        -0.301807
 H        -2.650913         2.009722         1.030736
