19
Iteration:  4781
 C        -3.756550        -0.587564         1.468678
 C        -2.389369        -0.078456         1.612912
 C        -1.324121        -1.126110         1.713077
 C        -0.402336        -1.368718         0.430171
 C         0.008623         0.066269        -0.012499
 O         0.702040         0.121841        -1.017242
 C        -0.469264         1.229396         0.914842
 C        -1.924001         1.256813         1.160008
 O        -2.266340         1.059712         2.505073
 H        -3.584801        -1.562211         0.969939
 H        -4.301522        -0.551107         2.374098
 H        -4.363489        -0.003303         0.754729
 H        -0.564855        -0.564120         2.353336
 H        -1.829170        -1.960099         2.147613
 H         0.445683        -2.031293         0.508586
 H        -0.941240        -1.856987        -0.425558
 H         0.043108         1.149208         1.869727
 H        -0.064837         2.224743         0.428604
 H        -2.608808         1.842863         0.533725
