19
Iteration:  1375
 C        -3.845470        -0.319756         2.338565
 C        -2.491457        -0.063402         1.521915
 C        -1.702386        -1.366486         1.195587
 C        -0.727852        -1.305575        -0.060737
 C         0.059418         0.080169         0.204724
 O         1.257251         0.160220         0.362225
 C        -0.774233         1.281672        -0.009044
 C        -2.020693         1.252926         0.852346
 O        -1.652759         0.852904         2.187121
 H        -3.614234        -0.982152         3.147013
 H        -4.401491         0.616455         2.679207
 H        -4.608899        -0.849357         1.750587
 H        -1.069567        -1.621962         2.064958
 H        -2.320897        -2.300946         1.055819
 H        -0.038150        -2.119859        -0.153790
 H        -1.445492        -1.134919        -0.928607
 H        -0.137349         2.207228         0.271177
 H        -1.161850         1.425092        -1.036862
 H        -2.681354         2.120737         0.637089
