19
Iteration:  4292charge 0 multiplicity 1
 C        -3.795134        -0.252078         2.425081
 C        -2.516874        -0.225418         1.585819
 C        -2.014585        -1.350523         0.707203
 C        -0.494015        -1.118874         0.411736
 C         0.087121         0.261138         0.130472
 O         1.312054         0.480113         0.156778
 C        -1.041059         1.214702        -0.153692
 C        -2.027486         1.059356         1.048008
 O        -1.428957         0.531400         2.258513
 H        -3.403835        -0.514888         3.432007
 H        -4.218350         0.677052         2.397761
 H        -4.448626        -1.002122         2.068504
 H        -2.039812        -2.207587         1.328990
 H        -2.819212        -1.493413        -0.068072
 H        -0.001487        -1.361032         1.332978
 H        -0.198901        -2.001584        -0.157993
 H        -0.902078         2.314928        -0.182846
 H        -1.537137         0.776839        -1.061967
 H        -2.765038         1.855023         1.199224
