19
Iteration:  2875
 C        -3.588907        -0.400534         2.403044
 C        -2.360021        -0.057161         1.512816
 C        -1.840938        -1.428232         1.000569
 C        -0.629571        -1.240999         0.092050
 C        -0.039962         0.066025         0.158248
 O         1.082581         0.330117         0.654023
 C        -0.912133         1.281557        -0.238398
 C        -2.051669         1.180274         0.772651
 O        -1.540828         0.850810         2.170942
 H        -3.303778        -0.935982         3.348808
 H        -4.198949         0.351054         2.793163
 H        -4.437035        -1.033621         1.984540
 H        -1.596247        -1.887793         1.918434
 H        -2.648005        -1.920530         0.431753
 H         0.112959        -2.032139         0.137431
 H        -1.034650        -1.427221        -0.907598
 H        -0.259347         2.221102        -0.070735
 H        -1.254031         1.262353        -1.198986
 H        -2.811304         1.989608         0.754579
