19
Iteration:  2985
 C        -3.966838        -0.356152         1.855669
 C        -2.519407        -0.095690         1.532328
 C        -1.784862        -1.324175         1.241661
 C        -0.521027        -1.216937         0.384853
 C         0.086095         0.126247         0.164142
 O         1.284716         0.284161        -0.136315
 C        -0.975962         1.238743         0.099906
 C        -2.024162         1.236630         1.160006
 O        -1.514906         0.728264         2.397143
 H        -3.950880        -1.290212         2.395883
 H        -4.373467         0.414960         2.537571
 H        -4.320494        -0.441825         0.791313
 H        -1.428834        -1.710810         2.155984
 H        -2.385440        -2.181739         0.847884
 H         0.263558        -1.795614         0.786939
 H        -0.868003        -1.702846        -0.593721
 H        -0.445693         2.280279        -0.034050
 H        -1.569278         1.054676        -0.869146
 H        -2.600075         2.159246         1.338354
