19
Iteration:  2310charge 0 multiplicity 1
 C        -3.988573        -0.248078         1.520218
 C        -2.419055        -0.159548         1.463629
 C        -1.632273        -1.363794         0.967463
 C        -0.101867        -1.094858         1.183813
 C         0.079863         0.097267         0.224613
 O         0.456080        -0.029560        -0.949249
 C        -0.502542         1.418191         0.615936
 C        -1.876227         1.213529         1.214611
 O        -1.772475         0.727568         2.540844
 H        -4.425799        -0.540987         2.494642
 H        -4.520364         0.601784         1.311632
 H        -4.400551        -0.901413         0.697433
 H        -1.918869        -2.300765         1.368161
 H        -1.819919        -1.428915        -0.090031
 H         0.002099        -0.819324         2.233040
 H         0.648652        -1.889683         0.986036
 H         0.107310         1.962055         1.320586
 H        -0.656035         2.074407        -0.302218
 H        -2.533101         1.992610         1.003172
