19
Iteration:   905charge 0 multiplicity 1
 C        -4.064396        -0.302357         1.827746
 C        -2.555248        -0.109575         1.533985
 C        -1.808120        -1.364832         0.994513
 C        -0.317935        -1.114066         0.858012
 C         0.140263         0.110475         0.016732
 O         1.087882         0.061862        -0.773517
 C        -0.654256         1.453587         0.392661
 C        -1.983597         1.304659         1.246326
 O        -1.712547         0.563141         2.564711
 H        -4.184830        -1.150285         2.502789
 H        -4.573115         0.563058         2.161081
 H        -4.588973        -0.530675         0.868385
 H        -2.021847        -2.156348         1.799027
 H        -2.373060        -1.677201         0.073173
 H        -0.098987        -0.874167         1.929835
 H         0.298775        -1.848504         0.468629
 H         0.068891         2.011898         1.013577
 H        -0.861865         1.991711        -0.500271
 H        -2.597621         2.206613         1.354721
