19
Iteration:  1515
 C        -3.875353        -0.464919         1.477955
 C        -2.437481        -0.043730         1.614586
 C        -1.436581        -1.197161         1.761061
 C        -0.593527        -1.331778         0.504195
 C         0.107773         0.001182         0.052417
 O         0.856945         0.069497        -0.922769
 C        -0.335848         1.235407         0.799565
 C        -1.847244         1.209302         1.045546
 O        -2.211858         1.087199         2.411745
 H        -4.200273        -0.953903         2.375672
 H        -4.435622         0.561126         1.266332
 H        -4.001530        -1.099382         0.608700
 H        -0.932518        -1.147069         2.773186
 H        -2.091104        -2.132297         1.854203
 H         0.104765        -2.118382         0.576996
 H        -1.267481        -1.451580        -0.359464
 H         0.098177         1.075421         1.754138
 H         0.085654         2.195766         0.462370
 H        -2.532308         1.953880         0.564175
