19
Iteration:    90
 C        -3.651754        -0.134749         2.224957
 C        -2.307934         0.040028         1.549082
 C        -1.791570        -1.390854         1.106880
 C        -0.789448        -1.317209        -0.080165
 C        -0.080901        -0.019329         0.094471
 O         0.960814         0.110558         0.811630
 C        -0.887817         1.114335        -0.221830
 C        -1.912084         1.304676         0.843744
 O        -1.430111         0.870893         2.179822
 H        -3.671428        -1.217235         2.589877
 H        -3.826999         0.370295         3.086297
 H        -4.507683         0.084541         1.594219
 H        -1.254578        -1.681145         2.031079
 H        -2.635798        -2.079087         0.978125
 H        -0.015694        -2.197005        -0.064695
 H        -1.252558        -1.233196        -1.001482
 H        -0.225513         2.042057        -0.145667
 H        -1.331279         1.190854        -1.167713
 H        -2.553605         2.137928         0.839289
