19
Iteration:   336
 C        -3.894207        -0.319645         1.290631
 C        -2.437514        -0.054020         1.446927
 C        -1.635422        -1.369121         1.341185
 C        -0.186264        -1.191424         1.028716
 C         0.031942         0.086059         0.136115
 O         0.314354        -0.169992        -0.994936
 C        -0.196198         1.437299         0.801107
 C        -1.719901         1.284718         1.200323
 O        -2.003308         0.914222         2.537047
 H        -4.241356        -1.111934         1.921706
 H        -4.539571         0.573331         1.463831
 H        -4.058503        -0.729587         0.253663
 H        -1.948591        -2.005409         2.209545
 H        -2.153626        -1.844258         0.455474
 H         0.416256        -1.065227         1.898049
 H         0.249214        -2.016559         0.335507
 H         0.345516         1.646102         1.674910
 H        -0.056014         2.341652         0.138592
 H        -2.419639         2.095030         0.804598
