19
Iteration:  4896charge 0 multiplicity 1
 C        -3.837545        -0.537498         1.266586
 C        -2.490508        -0.141634         1.802337
 C        -1.338650        -1.204709         1.757576
 C        -0.351407        -1.208570         0.585098
 C         0.099800         0.073118        -0.045929
 O         0.608019         0.156093        -1.192321
 C        -0.404961         1.278962         0.802308
 C        -1.811292         1.189172         1.251655
 O        -2.214760         0.998006         2.625168
 H        -4.665392        -1.005866         1.900122
 H        -4.396667         0.135030         0.563239
 H        -3.654098        -1.473320         0.683215
 H        -0.793817        -1.021976         2.620250
 H        -1.895170        -2.177620         1.698007
 H         0.533702        -1.941296         0.742780
 H        -0.897274        -1.741111        -0.212625
 H         0.125386         1.553378         1.772827
 H        -0.479699         2.016256         0.065387
 H        -2.432416         2.098288         0.976200
