19
Iteration:   356charge 0 multiplicity 1
 C        -3.816723        -0.242148         1.241760
 C        -2.397106        -0.042729         1.391754
 C        -1.619947        -1.335992         1.489422
 C        -0.123112        -1.170351         1.050687
 C         0.075485        -0.043016         0.120787
 O         0.212236         0.006353        -1.089498
 C        -0.213065         1.297471         0.898246
 C        -1.700525         1.268997         1.131310
 O        -2.139352         0.852615         2.487890
 H        -4.071118        -0.857819         2.089153
 H        -4.299340         0.829055         1.344576
 H        -4.107301        -0.852706         0.393452
 H        -1.600457        -1.651622         2.498249
 H        -2.155716        -2.068367         0.979856
 H         0.523971        -1.084576         1.901958
 H         0.142520        -2.126137         0.451197
 H         0.284487         1.361507         1.859305
 H         0.163683         2.166121         0.298493
 H        -2.397072         2.034116         0.680014
