19
Iteration:  1027
 C        -3.801749        -0.175229         0.962537
 C        -2.347603        -0.133192         1.384725
 C        -1.438373        -1.263604         1.429889
 C         0.073914        -1.015645         1.135074
 C        -0.093236         0.083956         0.141399
 O        -0.134691         0.012013        -1.048440
 C        -0.269010         1.351481         0.824892
 C        -1.688484         1.180549         1.304662
 O        -2.003005         0.590710         2.640743
 H        -4.387035        -1.075223         1.159512
 H        -4.257302         0.851089         1.388465
 H        -3.901456        -0.141122        -0.127511
 H        -1.525387        -1.966262         2.400040
 H        -1.833633        -2.101082         0.696312
 H         0.603283        -0.799042         2.067722
 H         0.469103        -2.072145         0.778631
 H         0.588708         1.488455         1.572415
 H        -0.268965         2.122463         0.187932
 H        -2.407161         1.981739         0.972364
