19
Iteration:  3755
 C        -4.012657        -0.440831         2.018205
 C        -2.534685        -0.121218         1.497668
 C        -1.728081        -1.390793         1.143020
 C        -0.300656        -1.233991         0.540630
 C         0.044038         0.212683        -0.008860
 O         1.190273         0.440594        -0.281916
 C        -0.939287         1.365064         0.101692
 C        -2.057476         1.171817         1.212942
 O        -1.568423         0.597968         2.396011
 H        -4.085867        -1.476595         2.376360
 H        -4.328654         0.164952         2.960780
 H        -4.752513        -0.186601         1.200070
 H        -1.632837        -2.002089         2.111214
 H        -2.536813        -2.027932         0.589954
 H         0.507176        -1.485589         1.209368
 H        -0.157596        -1.920810        -0.290473
 H        -0.299211         2.140788         0.471166
 H        -1.424518         1.719686        -0.920858
 H        -2.732578         1.992774         1.183408
