19
Iteration:  2138
 C        -3.924957        -0.283620         2.012870
 C        -2.447831        -0.094197         1.701242
 C        -1.927162        -1.416481         0.978186
 C        -0.479997        -1.244720         0.461512
 C         0.093058         0.095082         0.230539
 O         1.259320         0.213558        -0.167887
 C        -0.883739         1.261717         0.089438
 C        -2.013642         1.177087         1.058900
 O        -1.564730         0.889996         2.398040
 H        -4.195450        -1.093153         2.669597
 H        -4.372489         0.566487         2.352472
 H        -4.463378        -0.625504         1.130540
 H        -1.901803        -2.304922         1.668571
 H        -2.643038        -1.493938         0.141604
 H         0.205495        -1.847267         1.095111
 H        -0.287438        -1.753000        -0.484388
 H        -0.269263         2.271315         0.089250
 H        -1.170339         1.079262        -0.951065
 H        -2.839393         1.896350         1.010674
