19
Iteration:  2114charge 0 multiplicity 1
 C        -3.820659        -0.151470         2.146583
 C        -2.447171        -0.070090         1.516156
 C        -1.896052        -1.356205         0.883857
 C        -0.407833        -1.350931         0.453933
 C         0.067934         0.016140         0.008105
 O         1.261659         0.319440         0.096247
 C        -0.989262         1.229913        -0.046070
 C        -1.979397         1.241352         1.085414
 O        -1.669690         0.702705         2.427131
 H        -3.667008        -0.560396         3.126283
 H        -4.130382         0.803020         2.349015
 H        -4.667387        -0.740433         1.840216
 H        -2.057906        -2.140672         1.646270
 H        -2.565717        -1.455461         0.005933
 H         0.297995        -1.732315         1.198357
 H        -0.291179        -2.170677        -0.303036
 H        -0.326991         2.126192        -0.082633
 H        -1.535138         1.149259        -1.047385
 H        -2.697059         1.948611         1.110706
