19
Iteration:  4662
 C        -3.947102        -0.601593         1.638432
 C        -2.476018        -0.162528         1.676034
 C        -1.341763        -1.224404         1.680783
 C        -0.544799        -1.175788         0.462101
 C         0.132176         0.120040        -0.046535
 O         1.062195         0.049731        -0.820525
 C        -0.518818         1.355613         0.518289
 C        -2.029890         1.194047         1.127548
 O        -2.160594         1.019916         2.504745
 H        -4.403588        -0.541740         0.609199
 H        -3.899434        -1.594208         2.112373
 H        -4.593090         0.069611         2.294992
 H        -0.649749        -0.942140         2.527613
 H        -1.705881        -2.224233         1.687961
 H         0.156576        -2.041169         0.374864
 H        -1.305671        -1.321581        -0.373146
 H         0.037230         1.648821         1.416311
 H        -0.391585         2.305100        -0.093904
 H        -2.819189         1.750042         0.588278
