19
Iteration:   317charge 0 multiplicity 1
 C        -3.983900        -0.251469         1.306372
 C        -2.431628        -0.017711         1.524591
 C        -1.669256        -1.325410         1.177987
 C        -0.099013        -1.172581         1.127745
 C         0.134527         0.006905         0.141542
 O         0.437799        -0.141371        -1.012967
 C        -0.409489         1.328218         0.659357
 C        -1.829517         1.302205         1.228961
 O        -1.905591         0.883941         2.621829
 H        -4.350294        -1.119751         1.914023
 H        -4.602787         0.501814         1.612390
 H        -4.219022        -0.380746         0.204891
 H        -1.878691        -2.123516         1.984890
 H        -2.017152        -1.706671         0.123252
 H         0.259448        -0.948106         2.165797
 H         0.331098        -2.093464         0.774053
 H         0.303226         1.651735         1.461985
 H        -0.314798         2.007124        -0.211334
 H        -2.440389         2.165239         1.001159
