19
Iteration:  2385
 C        -3.829337        -0.215624         1.348236
 C        -2.390555        -0.127382         1.668035
 C        -1.557879        -1.387678         1.527725
 C        -0.130643        -1.237890         0.870583
 C        -0.001079         0.032221        -0.043245
 O         0.621699         0.143493        -1.105508
 C        -0.445551         1.275822         0.720171
 C        -1.914068         1.162680         1.128373
 O        -2.145219         0.913688         2.614406
 H        -4.190199        -1.277735         1.447125
 H        -4.499394         0.280008         1.925429
 H        -4.038060         0.094114         0.277663
 H        -1.433347        -1.804064         2.504692
 H        -2.050839        -2.212905         1.016626
 H         0.531761        -1.045238         1.658659
 H         0.187109        -2.162638         0.374065
 H         0.036650         1.246715         1.831057
 H        -0.251272         2.314954         0.264184
 H        -2.565537         1.911727         0.682974
