19
Iteration:  3240charge 0 multiplicity 1
 C        -3.913702        -0.428384         1.339408
 C        -2.472368        -0.087967         1.497745
 C        -1.374186        -1.338387         1.593024
 C        -0.020847        -1.242479         0.732754
 C         0.112660         0.098928         0.152249
 O         0.386252         0.126155        -1.063728
 C        -0.377945         1.316283         0.897616
 C        -1.916006         1.244941         1.066557
 O        -2.178711         0.921033         2.503648
 H        -4.145213        -1.461289         1.398723
 H        -4.492563         0.092833         2.148211
 H        -4.322717        -0.066347         0.408342
 H        -1.079951        -1.552914         2.642604
 H        -1.839948        -2.283790         1.271630
 H         0.679309        -1.581931         1.515119
 H         0.084530        -1.838851        -0.137836
 H         0.164935         1.259798         1.944143
 H        -0.049536         2.215358         0.362145
 H        -2.657903         1.996374         0.815587
