19
Iteration:  2877
 C        -3.580660        -0.412317         2.397901
 C        -2.365110        -0.058137         1.512091
 C        -1.864616        -1.433211         1.009590
 C        -0.643555        -1.238308         0.109765
 C        -0.025524         0.093871         0.160390
 O         1.086428         0.323868         0.650245
 C        -0.908159         1.298509        -0.245272
 C        -2.051880         1.178325         0.764894
 O        -1.538949         0.839852         2.167209
 H        -3.221489        -0.931736         3.264685
 H        -4.215037         0.411294         2.796866
 H        -4.419271        -1.065103         2.012081
 H        -1.547175        -1.987894         1.946565
 H        -2.668309        -1.938328         0.481091
 H         0.055207        -1.980618         0.182223
 H        -1.060846        -1.396475        -0.899134
 H        -0.317489         2.218855        -0.038296
 H        -1.160114         1.211431        -1.296815
 H        -2.772501         1.987254         0.761502
