19
Iteration:   739
 C        -3.666778        -0.305871         2.385027
 C        -2.421387        -0.041275         1.536725
 C        -1.959030        -1.410325         0.934673
 C        -0.678452        -1.293803         0.030094
 C         0.040413         0.084511         0.079854
 O         1.041129         0.319097         0.695486
 C        -0.878320         1.156406        -0.267302
 C        -1.936498         1.191150         0.866393
 O        -1.416217         0.870544         2.225913
 H        -3.380273        -0.508919         3.422436
 H        -4.221818         0.566126         2.578735
 H        -4.316087        -1.096469         2.029128
 H        -1.725480        -1.957402         1.892107
 H        -2.827202        -1.969535         0.450314
 H        -0.064822        -2.153800         0.305008
 H        -0.924050        -1.369884        -0.971414
 H        -0.462069         2.179410        -0.224192
 H        -1.363379         0.897472        -1.192950
 H        -2.549448         2.101440         0.986305
