19
Iteration:    62
 C        -3.723363        -0.254093         2.283288
 C        -2.425695        -0.029085         1.426303
 C        -1.759209        -1.396863         1.155001
 C        -0.794367        -1.326091        -0.033216
 C         0.039691         0.018760         0.119576
 O         1.060101        -0.081329         0.714023
 C        -0.813404         1.291911        -0.150867
 C        -2.029286         1.295801         0.860818
 O        -1.459800         1.053858         2.118589
 H        -3.640944        -1.219675         2.737668
 H        -3.495182         0.349700         3.286664
 H        -4.736490         0.091546         1.940489
 H        -1.321375        -1.720955         2.132676
 H        -2.581508        -2.123758         0.911860
 H        -0.061071        -2.128019        -0.015349
 H        -1.365444        -1.342948        -1.033836
 H        -0.202543         2.158221         0.098150
 H        -1.098763         1.389507        -1.255475
 H        -2.874156         2.064978         0.744714
