19
Iteration:  3193
 C        -3.891487        -0.484040         1.281914
 C        -2.439360        -0.133836         1.538114
 C        -1.558688        -1.367995         1.390084
 C        -0.110184        -1.035359         1.064076
 C         0.070453         0.081315         0.041669
 O         0.354100         0.080602        -1.123430
 C        -0.321715         1.396371         0.801321
 C        -1.820920         1.239293         1.201772
 O        -2.013399         0.842605         2.584365
 H        -4.252014        -1.440529         1.526216
 H        -4.780076         0.097492         1.745488
 H        -4.149884        -0.450553         0.213362
 H        -1.434999        -2.041955         2.224288
 H        -2.057113        -2.059430         0.582347
 H         0.432380        -0.651042         1.909803
 H         0.400050        -1.942503         0.694399
 H         0.217918         1.506877         1.771004
 H        -0.256968         2.295801         0.158497
 H        -2.587174         1.850441         0.737848
