19
Iteration:   794
 C        -3.662127        -0.181107         2.366231
 C        -2.484375        -0.107930         1.434965
 C        -2.025373        -1.421579         0.834743
 C        -0.535864        -1.347617         0.295489
 C         0.024804         0.067661         0.251633
 O         1.188362         0.359505         0.410189
 C        -0.997773         1.234176        -0.096464
 C        -2.077863         1.206588         0.958199
 O        -1.365720         0.751957         2.127637
 H        -3.441538        -0.929496         3.110701
 H        -3.854565         0.769043         2.722143
 H        -4.610806        -0.386769         1.878044
 H        -2.189294        -2.250957         1.585400
 H        -2.711796        -1.614476        -0.048566
 H        -0.014424        -1.954321         1.047987
 H        -0.326003        -1.776258        -0.603616
 H        -0.474053         2.123928        -0.164964
 H        -1.446645         1.139107        -1.048813
 H        -2.823620         1.982658         1.173990
