19
Iteration:  3631
 C        -3.658962        -0.297790         2.278581
 C        -2.394519        -0.181152         1.522549
 C        -1.671494        -1.451475         1.012675
 C        -0.617359        -1.216570        -0.090360
 C        -0.039411         0.160581         0.224820
 O         1.110169         0.456382         0.608878
 C        -1.173449         1.242163        -0.100139
 C        -2.134073         1.141235         1.002427
 O        -1.363492         0.728408         2.144625
 H        -3.380616        -0.273293         3.386221
 H        -4.344457         0.478474         1.938206
 H        -4.074982        -1.359722         2.171821
 H        -1.265140        -1.962433         1.903377
 H        -2.325264        -2.272463         0.466012
 H         0.053673        -2.092703        -0.082026
 H        -1.044894        -1.250599        -1.053267
 H        -0.755834         2.328145        -0.037421
 H        -1.413144         1.097936        -1.231371
 H        -2.962114         1.879100         1.081866
