19
Iteration:  1597charge 0 multiplicity 1
 C        -3.665692        -0.392736         0.855449
 C        -2.382764        -0.014804         1.647854
 C        -1.463105        -1.232775         1.848675
 C        -0.401338        -1.324968         0.775658
 C        -0.106501        -0.020196         0.164137
 O         0.189701         0.029508        -1.045129
 C        -0.138966         1.303496         0.896481
 C        -1.686847         1.240534         1.202738
 O        -2.139482         1.029673         2.567851
 H        -4.547339        -1.011691         1.299113
 H        -4.174250         0.396782         0.349111
 H        -3.181721        -1.018175         0.010629
 H        -0.952114        -1.116402         2.795203
 H        -2.002221        -2.178822         1.820620
 H         0.624914        -1.775157         1.059222
 H        -0.478774        -1.951860        -0.114380
 H         0.443853         1.432339         1.825656
 H         0.020886         1.918486         0.004026
 H        -2.311406         1.945612         0.674839
