19
Iteration:   691
 C        -3.815824        -0.111467         2.176685
 C        -2.457241        -0.176627         1.544793
 C        -1.722459        -1.466672         1.195197
 C        -0.718459        -1.200626         0.048086
 C         0.011365         0.136495         0.122682
 O         1.206830         0.194074         0.415019
 C        -0.901160         1.292956        -0.142466
 C        -1.965397         1.112886         0.919678
 O        -1.517085         0.787175         2.273544
 H        -3.811824        -0.596178         3.164784
 H        -4.098184         0.925143         2.587307
 H        -4.550489        -0.658392         1.566580
 H        -1.239723        -1.816528         2.110713
 H        -2.432028        -2.286931         0.905757
 H         0.054575        -1.941436         0.129389
 H        -1.226590        -1.294616        -0.930454
 H        -0.393523         2.155737         0.114598
 H        -1.447024         1.360036        -1.099675
 H        -2.895247         1.692972         0.857180
