19
Iteration:  1880
 C        -3.959622        -0.374941         1.847025
 C        -2.413272        -0.089625         1.623359
 C        -1.560970        -1.403286         1.561474
 C        -0.787607        -1.207540         0.135394
 C         0.072392         0.098778         0.037762
 O         1.261354         0.017927        -0.188149
 C        -0.621791         1.392598         0.265366
 C        -1.910758         1.182781         1.013292
 O        -1.926346         0.962893         2.401677
 H        -3.993417        -0.831219         2.834643
 H        -4.503614         0.562923         1.896479
 H        -4.349673        -1.026341         1.103784
 H        -0.850788        -1.513485         2.413797
 H        -2.080967        -2.380018         1.415876
 H        -0.017053        -1.947640        -0.169542
 H        -1.503108        -1.312045        -0.741180
 H        -0.054184         2.109839         0.839782
 H        -0.950692         1.818234        -0.735013
 H        -2.723752         1.925529         0.711698
