19
Iteration:  1081charge 0 multiplicity 1
 C        -3.770643        -0.346784         1.148404
 C        -2.382963        -0.041415         1.410746
 C        -1.533485        -1.267245         1.252776
 C        -0.011241        -1.065483         1.121950
 C         0.017590         0.070782         0.160776
 O        -0.009355        -0.023674        -1.060674
 C        -0.231284         1.338892         0.841821
 C        -1.744230         1.252379         1.276897
 O        -2.022009         0.726261         2.611716
 H        -3.968971        -1.355033         1.541170
 H        -4.627152         0.260815         1.683754
 H        -3.943268        -0.522330         0.085002
 H        -1.850465        -2.095183         1.953064
 H        -1.971554        -1.604829         0.246479
 H         0.399393        -0.832927         2.106765
 H         0.505389        -2.030362         0.708343
 H         0.357914         1.584616         1.790150
 H        -0.113758         2.142480         0.214109
 H        -2.302311         2.195423         1.062221
