19
Iteration:  1907
 C        -3.924661        -0.356301         1.861084
 C        -2.421480        -0.024802         1.682939
 C        -1.687562        -1.302298         1.359962
 C        -0.710092        -1.200435         0.147615
 C         0.146730         0.060968         0.187007
 O         1.359848         0.052582        -0.123280
 C        -0.841700         1.245193         0.099876
 C        -2.046493         1.235180         1.074785
 O        -1.727008         0.919312         2.465352
 H        -4.090519        -0.754542         2.886966
 H        -4.608141         0.490927         1.639049
 H        -4.110032        -1.204602         1.119679
 H        -1.157006        -1.762213         2.226518
 H        -2.392315        -2.032677         0.912478
 H        -0.045144        -2.076386         0.044454
 H        -1.204881        -1.144093        -0.803791
 H        -0.384714         2.256213         0.275985
 H        -1.260860         1.209732        -0.867969
 H        -2.883158         1.865161         0.935461
