19
Iteration:  2006
 C        -3.715246        -0.251994         2.358631
 C        -2.411517        -0.050660         1.583675
 C        -1.996663        -1.335937         0.929236
 C        -0.585292        -1.329361         0.266850
 C         0.055522         0.089733         0.184868
 O         1.223233         0.338391         0.464724
 C        -0.974333         1.122753        -0.251239
 C        -2.010363         1.232584         0.866652
 O        -1.493623         0.791789         2.187041
 H        -3.657269        -1.254444         2.829966
 H        -3.799532         0.452292         3.100999
 H        -4.616979        -0.189142         1.678595
 H        -1.895590        -2.175573         1.665624
 H        -2.773004        -1.594311         0.174399
 H         0.022172        -1.908022         0.945880
 H        -0.609791        -1.719668        -0.726454
 H        -0.366369         2.052949        -0.481064
 H        -1.481893         0.801013        -1.111139
 H        -2.675775         2.019388         1.031486
