19
Iteration:  2827charge 0 multiplicity 1
 C        -3.720648        -0.190620         2.141533
 C        -2.353554        -0.149623         1.636214
 C        -1.648289        -1.411919         1.139545
 C        -0.589150        -1.232870         0.029489
 C        -0.002653         0.128710         0.143080
 O         1.099090         0.324561         0.501942
 C        -1.069214         1.180353        -0.257956
 C        -1.983359         1.141252         1.003391
 O        -1.564027         0.788442         2.310698
 H        -3.943807        -0.834236         3.013280
 H        -4.135454         0.801622         2.516846
 H        -4.452511        -0.458710         1.414955
 H        -1.074462        -1.982019         1.884994
 H        -2.491099        -1.949576         0.706762
 H         0.115705        -2.119592        -0.009998
 H        -0.996109        -1.338767        -1.002096
 H        -0.698965         2.137478        -0.483168
 H        -1.572029         0.725729        -1.159932
 H        -2.746747         1.916235         0.904861
