19
Iteration:  1540
 C        -3.993470        -0.431599         1.340785
 C        -2.488673        -0.053001         1.543401
 C        -1.329200        -1.089147         1.780324
 C        -0.513904        -1.416332         0.492951
 C         0.053552        -0.077945         0.032341
 O         0.666624         0.170507        -1.014000
 C        -0.206419         1.070245         0.974019
 C        -1.718748         1.156802         1.153200
 O        -2.291025         1.182369         2.433301
 H        -4.276402        -1.055625         2.291780
 H        -4.570238         0.435456         1.161998
 H        -4.042191        -1.082464         0.352701
 H        -0.650025        -0.578408         2.474355
 H        -1.616920        -1.944741         2.485531
 H         0.335763        -1.940297         0.985384
 H        -0.904437        -1.888792        -0.416492
 H         0.296501         1.084622         1.907580
 H         0.152449         1.919495         0.534956
 H        -2.257250         1.790763         0.469341
