19
Iteration:  1981charge 0 multiplicity 1
 C        -3.887062        -0.148220         2.210424
 C        -2.470358        -0.141240         1.609565
 C        -1.907386        -1.452027         1.087634
 C        -0.567726        -1.253047         0.263957
 C         0.034638         0.164690         0.343386
 O         1.265981         0.249985         0.319770
 C        -1.032535         1.207509        -0.144397
 C        -2.067968         1.085140         0.879878
 O        -1.333803         0.830513         2.103046
 H        -3.875026        -1.066070         2.701995
 H        -3.910582         0.690359         2.953725
 H        -4.639132        -0.063428         1.513043
 H        -1.579374        -2.166326         1.907550
 H        -2.628756        -1.821590         0.305144
 H         0.186476        -2.016134         0.515152
 H        -0.777640        -1.204791        -0.851878
 H        -0.583125         2.127780         0.034082
 H        -1.423515         1.089215        -1.201458
 H        -2.734606         1.874635         1.149980
