19
Iteration:  2153charge 0 multiplicity 1
 C        -4.061913        -0.349243         1.953418
 C        -2.473950        -0.087091         1.638466
 C        -1.880257        -1.321171         1.152024
 C        -0.471039        -1.296255         0.546093
 C         0.179987         0.154357         0.208546
 O         1.300620         0.164026        -0.309130
 C        -0.834803         1.317623         0.133139
 C        -2.061359         1.198642         1.060847
 O        -1.561587         0.807133         2.371131
 H        -4.082303        -1.351616         2.456903
 H        -4.569600         0.444441         2.694448
 H        -4.464413        -0.284789         0.935005
 H        -2.078566        -2.117722         1.863598
 H        -2.544033        -1.743637         0.377933
 H         0.290535        -1.839651         1.097151
 H        -0.618309        -1.649031        -0.469204
 H        -0.406370         2.267177         0.359476
 H        -1.177866         1.450553        -0.861570
 H        -2.764470         2.167765         1.033009
