19
Iteration:   334
 C        -3.905731        -0.323917         1.282532
 C        -2.450701        -0.053457         1.449288
 C        -1.652043        -1.383277         1.324761
 C        -0.173523        -1.175887         1.033139
 C         0.033905         0.060214         0.137179
 O         0.325071        -0.171575        -0.993276
 C        -0.201251         1.444654         0.786071
 C        -1.730980         1.291835         1.209348
 O        -1.987635         0.923257         2.551662
 H        -4.215147        -1.153476         1.900206
 H        -4.558502         0.645096         1.495482
 H        -4.064462        -0.728380         0.292692
 H        -1.918599        -2.036281         2.125148
 H        -2.114625        -1.817033         0.487822
 H         0.449744        -1.072152         1.903755
 H         0.249677        -1.985813         0.335363
 H         0.329008         1.686569         1.698237
 H        -0.026186         2.314014         0.108382
 H        -2.446593         2.075551         0.820773
