19
Iteration:  3239
 C        -3.914631        -0.427848         1.335458
 C        -2.459857        -0.094495         1.504298
 C        -1.373879        -1.336690         1.584034
 C        -0.017841        -1.237858         0.735810
 C         0.116349         0.096717         0.150671
 O         0.383382         0.124158        -1.066213
 C        -0.379657         1.313811         0.901672
 C        -1.919989         1.247179         1.069279
 O        -2.184926         0.923921         2.503480
 H        -4.103752        -1.466973         1.409322
 H        -4.489098         0.136038         2.180074
 H        -4.329188        -0.045957         0.414142
 H        -1.111065        -1.544569         2.635034
 H        -1.863282        -2.310632         1.241913
 H         0.671100        -1.583775         1.513990
 H         0.091945        -1.847598        -0.120805
 H         0.166140         1.287007         1.955843
 H        -0.036783         2.190404         0.350680
 H        -2.664444         1.976411         0.808337
