19
Iteration:  3764charge 0 multiplicity 1
 C        -3.939704        -0.399708         1.980202
 C        -2.503077        -0.221732         1.483815
 C        -1.716851        -1.391321         1.144567
 C        -0.339329        -1.190590         0.592620
 C         0.030474         0.203744         0.076986
 O         1.164339         0.428664        -0.389308
 C        -0.955448         1.349992         0.165282
 C        -1.999733         1.208433         1.217438
 O        -1.632899         0.605387         2.413750
 H        -4.109764        -1.504427         2.137719
 H        -4.240694         0.166863         2.875526
 H        -4.708908        -0.195341         1.129886
 H        -1.794098        -1.887558         2.120927
 H        -2.206974        -2.025065         0.268375
 H         0.372394        -1.441671         1.363137
 H        -0.190213        -1.845394        -0.221762
 H        -0.284075         2.190154         0.303194
 H        -1.400389         1.518368        -0.909316
 H        -2.698383         2.060901         1.392073
