19
Iteration:  2522
 C        -3.980406        -0.546439         1.474515
 C        -2.445173        -0.131551         1.531745
 C        -1.415566        -1.148552         1.732829
 C        -0.628287        -1.187354         0.434242
 C         0.078769         0.096039         0.051290
 O         0.887763         0.102376        -0.897965
 C        -0.362119         1.352904         0.773003
 C        -1.878193         1.240152         1.153008
 O        -2.101195         0.826952         2.487832
 H        -4.322621        -0.510328         2.500858
 H        -4.506917         0.326400         0.872164
 H        -4.015324        -1.456318         0.955952
 H        -0.795672        -0.939734         2.648741
 H        -1.943416        -2.139201         1.863497
 H         0.171397        -1.983038         0.647729
 H        -1.024694        -1.747789        -0.419581
 H         0.317734         1.608044         1.677945
 H        -0.160324         2.218058         0.117017
 H        -2.603459         1.936250         0.658033
