19
Iteration:  4260charge 0 multiplicity 1
 C        -3.757207        -0.276029         2.224440
 C        -2.450224        -0.122692         1.572572
 C        -1.888213        -1.336521         0.793901
 C        -0.315167        -1.362033         0.524355
 C        -0.017802         0.150275         0.176090
 O         1.089213         0.538870        -0.007338
 C        -1.091236         1.219517        -0.075528
 C        -1.946485         1.226850         1.109648
 O        -1.492810         0.541911         2.349523
 H        -3.756451        -1.184687         2.910888
 H        -3.950723         0.599461         2.809748
 H        -4.584776        -0.459951         1.541698
 H        -2.197289        -2.223726         1.220430
 H        -2.358790        -1.318011        -0.269586
 H         0.128677        -1.574292         1.495119
 H        -0.134048        -2.048181        -0.296371
 H        -0.589178         2.234715        -0.381526
 H        -1.744131         0.950918        -0.953031
 H        -2.597198         2.027268         1.335771
