19
Iteration:  4920
 C        -3.755353        -0.512748         1.316940
 C        -2.338298        -0.158589         1.543791
 C        -1.262120        -1.239470         1.825557
 C        -0.504841        -1.295651         0.510698
 C        -0.037093         0.148388         0.014718
 O         0.604018         0.199123        -1.020828
 C        -0.382547         1.330265         0.845600
 C        -1.885698         1.165290         1.148817
 O        -2.200592         0.951560         2.579304
 H        -4.289118        -0.282034         2.326610
 H        -4.286184         0.077826         0.631699
 H        -4.104014        -1.575093         1.102512
 H        -0.558981        -0.941079         2.564305
 H        -1.803250        -2.151795         1.995601
 H         0.459060        -1.840178         0.639863
 H        -1.085342        -1.839915        -0.257715
 H         0.258644         1.273792         1.698156
 H        -0.252418         2.141725         0.059649
 H        -2.681215         1.768036         0.598776
