19
Iteration:   977charge 0 multiplicity 1
 C        -3.845687        -0.335624         1.259043
 C        -2.400036        -0.121144         1.536867
 C        -1.561315        -1.290885         1.230269
 C        -0.060075        -1.111357         0.971394
 C         0.028737         0.078579         0.164079
 O         0.224404         0.023685        -1.047832
 C        -0.342396         1.330065         0.807983
 C        -1.747977         1.222239         1.273035
 O        -2.026032         0.804750         2.653947
 H        -4.279751        -0.962407         2.080383
 H        -4.330478         0.599388         1.126651
 H        -4.035336        -0.839755         0.278650
 H        -1.811069        -2.162217         1.768572
 H        -1.779989        -1.543292         0.205875
 H         0.674307        -1.082309         1.794738
 H         0.078029        -1.953300         0.301136
 H         0.255101         1.544795         1.720801
 H        -0.262053         2.146365        -0.080643
 H        -2.423183         2.014572         0.971564
