19
Iteration:  3333
 C        -3.706166        -0.620375         1.215263
 C        -2.395412        -0.140229         1.662403
 C        -1.259673        -1.092380         1.798338
 C        -0.652539        -1.292430         0.459566
 C        -0.058975         0.063194        -0.031358
 O         0.745419         0.253430        -0.932017
 C        -0.361358         1.300292         0.827065
 C        -1.837077         1.204742         1.178949
 O        -2.280509         0.918203         2.598218
 H        -4.169870        -1.074659         2.114879
 H        -4.373592         0.231034         0.951522
 H        -3.583564        -1.410557         0.463639
 H        -0.613163        -0.856552         2.621225
 H        -1.661087        -2.015621         2.227244
 H         0.128733        -2.058542         0.324032
 H        -1.488409        -1.618526        -0.286568
 H         0.378433         1.226616         1.606656
 H        -0.242097         2.240586         0.307259
 H        -2.439989         1.809775         0.462296
