19
Iteration:   585charge 0 multiplicity 1
 C        -4.037243        -0.235981         1.651788
 C        -2.489583        -0.091917         1.697694
 C        -1.454639        -1.323586         1.559751
 C        -0.567029        -1.258288         0.307604
 C         0.158979        -0.027750         0.095105
 O         1.119416         0.128856        -0.607167
 C        -0.593003         1.227866         0.483208
 C        -1.997263         1.111157         1.102841
 O        -1.970738         0.975338         2.474483
 H        -4.344532        -0.647460         2.591342
 H        -4.603442         0.733043         1.315215
 H        -4.374584        -0.896440         0.946050
 H        -0.819652        -1.274589         2.459365
 H        -1.944265        -2.346192         1.497273
 H         0.066712        -2.126255         0.292130
 H        -1.204991        -1.382924        -0.623037
 H         0.050438         1.788424         1.269530
 H        -0.698474         1.931263        -0.408932
 H        -2.602000         2.019167         0.789888
