19
Iteration:  2458charge 0 multiplicity 1
 C        -3.941770        -0.395405         1.436020
 C        -2.443229        -0.100593         1.542643
 C        -1.516030        -1.296105         1.615668
 C        -0.270390        -1.257001         0.624570
 C        -0.020405         0.106330        -0.075165
 O         0.777147         0.110342        -0.955403
 C        -0.408972         1.297160         0.735999
 C        -1.854269         1.213999         1.188062
 O        -2.147932         0.948217         2.593966
 H        -4.267744        -1.182854         2.152373
 H        -4.777352         0.420302         1.562220
 H        -4.216663        -0.825135         0.439179
 H        -1.171486        -1.399490         2.690850
 H        -2.043204        -2.299786         1.456775
 H         0.692545        -1.424785         1.294408
 H        -0.292112        -1.992402        -0.222737
 H         0.272114         1.121266         1.500687
 H        -0.117354         2.173905         0.260899
 H        -2.560469         1.942772         0.601805
