19
Iteration:  2277charge 0 multiplicity 1
 C        -4.016224        -0.234767         1.703103
 C        -2.516588        -0.118493         1.389643
 C        -1.661799        -1.209488         0.963525
 C        -0.140773        -0.938787         1.144000
 C         0.119523         0.125721         0.120661
 O         0.713776        -0.155267        -0.928663
 C        -0.517139         1.424994         0.552097
 C        -1.868244         1.231679         1.246120
 O        -1.910287         0.513621         2.530751
 H        -4.099704        -0.731565         2.702290
 H        -4.432189         0.714492         1.666156
 H        -4.501388        -1.011560         1.041952
 H        -1.932410        -2.120594         1.452849
 H        -1.840852        -1.314012        -0.099160
 H         0.002592        -0.648829         2.161239
 H         0.476265        -1.813246         0.857147
 H         0.144773         1.988237         1.087887
 H        -0.814597         2.042319        -0.342648
 H        -2.508663         2.053297         1.175822
