19
Iteration:    65
 C        -3.707229        -0.258895         2.266807
 C        -2.431201        -0.051669         1.414684
 C        -1.754861        -1.391273         1.156834
 C        -0.797991        -1.354247        -0.043602
 C         0.014429         0.010849         0.139251
 O         1.047924        -0.061126         0.726042
 C        -0.807025         1.308350        -0.160406
 C        -2.023830         1.315702         0.861009
 O        -1.437957         1.052823         2.122857
 H        -3.671805        -1.231930         2.767917
 H        -3.492246         0.331443         3.242986
 H        -4.758344         0.098256         1.987063
 H        -1.314731        -1.736166         2.036186
 H        -2.547776        -2.029303         0.944126
 H        -0.167179        -2.161485         0.043098
 H        -1.383338        -1.370723        -1.002197
 H        -0.190820         2.154922        -0.008138
 H        -1.091114         1.367539        -1.217760
 H        -2.888839         2.048270         0.809454
