19
Iteration:  2027charge 0 multiplicity 1
 C        -3.684567        -0.223722         2.446364
 C        -2.513299        -0.024084         1.390722
 C        -1.987181        -1.338381         0.787543
 C        -0.457894        -1.429173         0.348719
 C         0.020294         0.018590         0.043952
 O         1.080892         0.379107         0.497571
 C        -0.990426         1.106298        -0.264470
 C        -1.891555         1.270632         0.979457
 O        -1.512839         0.813896         2.298104
 H        -3.398881        -1.039245         3.073866
 H        -3.773142         0.633402         2.942773
 H        -4.599287        -0.445900         1.914278
 H        -2.107258        -2.146678         1.538959
 H        -2.456384        -1.513640        -0.182476
 H         0.234557        -1.808613         1.088168
 H        -0.431389        -2.031112        -0.562579
 H        -0.372501         2.011566        -0.371764
 H        -1.507416         0.853591        -1.128892
 H        -2.465871         2.129251         0.970915
