19
Iteration:  4820charge 0 multiplicity 1
 C        -3.874292        -0.506989         1.396455
 C        -2.432851        -0.165251         1.708461
 C        -1.397981        -1.271728         1.865407
 C        -0.409836        -1.305458         0.579226
 C         0.133651         0.136120        -0.045857
 O         0.630728         0.254221        -1.153768
 C        -0.307696         1.322516         0.838521
 C        -1.818672         1.081448         1.096059
 O        -2.252616         1.032838         2.505511
 H        -4.095859        -1.606532         1.481145
 H        -4.633744        -0.213646         2.162234
 H        -4.119163        -0.251328         0.359278
 H        -0.910982        -1.046333         2.786665
 H        -1.828185        -2.288537         2.094633
 H         0.455570        -2.011174         0.819312
 H        -0.996224        -1.647069        -0.287042
 H         0.363752         1.268938         1.721260
 H        -0.414948         2.262119         0.290531
 H        -2.455607         1.749701         0.446636
