19
Iteration:  1834
 C        -3.988286        -0.451467         1.720347
 C        -2.422965        -0.018474         1.674709
 C        -1.360397        -1.150858         1.570618
 C        -0.767585        -1.314551         0.138510
 C         0.103880        -0.035026        -0.092346
 O         1.263257        -0.016387        -0.476450
 C        -0.499190         1.202809         0.563602
 C        -2.016626         1.223100         1.076054
 O        -2.161385         1.140134         2.511750
 H        -4.070718        -1.360232         2.367825
 H        -4.639056         0.260176         2.015302
 H        -4.156501        -0.827221         0.670202
 H        -0.605430        -0.851194         2.283665
 H        -1.874597        -2.083073         1.789015
 H        -0.182765        -2.200855        -0.026780
 H        -1.567063        -1.435337        -0.651018
 H         0.074890         1.398321         1.522889
 H        -0.333560         2.020584        -0.155411
 H        -2.717983         1.922614         0.583928
