19
Iteration:  3111
 C        -4.072131        -0.336610         1.567426
 C        -2.488773        -0.124054         1.545960
 C        -1.614619        -1.268998         0.981348
 C        -0.119727        -0.957060         1.149088
 C         0.062592         0.090041         0.099624
 O         0.720236        -0.045219        -0.912645
 C        -0.617420         1.449685         0.483734
 C        -1.896018         1.224799         1.267013
 O        -1.814246         0.551142         2.547681
 H        -4.355469        -0.717290         2.654112
 H        -4.417634         0.643685         1.238146
 H        -4.377451        -1.093241         0.800729
 H        -1.781564        -2.261725         1.512016
 H        -1.830705        -1.384754        -0.061979
 H         0.082388        -0.563641         2.210564
 H         0.645705        -1.711880         0.999897
 H         0.010945         2.082549         1.074279
 H        -0.832106         2.125436        -0.319284
 H        -2.551223         2.116585         1.369445
