19
Iteration:  1744charge 0 multiplicity 1
 C        -3.893990        -0.311006         1.197226
 C        -2.441350        -0.031077         1.652057
 C        -1.386361        -1.138789         1.846753
 C        -0.345128        -1.308972         0.639012
 C         0.020602        -0.051366        -0.085588
 O         0.697445         0.086100        -1.072790
 C        -0.338374         1.084758         0.791115
 C        -1.782011         1.209708         1.241840
 O        -2.336118         1.034054         2.553524
 H        -4.601129        -0.456134         1.985709
 H        -4.228227         0.610192         0.628663
 H        -4.036868        -1.224479         0.580799
 H        -0.809279        -0.966424         2.713473
 H        -2.021158        -1.930987         1.942928
 H         0.595329        -1.758103         1.079838
 H        -0.698139        -2.126165        -0.072306
 H         0.289153         0.857279         1.780340
 H         0.166717         1.975204         0.376782
 H        -2.323093         1.947582         0.668129
