19
Iteration:   147charge 0 multiplicity 1
 C        -3.785555        -0.003014         2.138020
 C        -2.437196        -0.051426         1.463824
 C        -1.886886        -1.345178         1.104323
 C        -0.677965        -1.378514         0.194885
 C        -0.003692         0.001590         0.207078
 O         1.225034         0.213109         0.352187
 C        -0.877507         1.223147        -0.066074
 C        -1.947270         1.229993         0.959300
 O        -1.482557         0.676422         2.248234
 H        -3.821651        -0.409035         3.144992
 H        -4.131596         1.033119         2.157276
 H        -4.493322        -0.619460         1.675854
 H        -1.777889        -1.891075         2.087631
 H        -2.749679        -1.913654         0.601932
 H         0.025845        -2.265696         0.213676
 H        -1.156382        -1.415821        -0.792730
 H        -0.256164         2.115386         0.138256
 H        -1.321522         1.220818        -1.087513
 H        -2.635933         2.072783         1.036962
