19
Iteration:  4540
 C        -3.807464        -0.512562         1.741234
 C        -2.370506        -0.131848         1.724745
 C        -1.440493        -1.336040         1.567998
 C        -0.781105        -1.311091         0.159318
 C         0.058761         0.030187         0.060321
 O         1.183849         0.320306        -0.392607
 C        -0.716099         1.317727         0.335698
 C        -2.048999         1.165463         1.042709
 O        -1.950608         0.957824         2.513960
 H        -4.031168        -1.664349         1.688877
 H        -4.051137        -0.198911         2.727730
 H        -4.239341        -0.061109         0.854795
 H        -0.614714        -1.154370         2.313792
 H        -1.947974        -2.211666         1.783414
 H        -0.329882        -2.181636        -0.194438
 H        -1.504061        -1.064726        -0.649951
 H        -0.005616         1.984343         0.727501
 H        -0.867388         1.726829        -0.768271
 H        -2.722912         2.003552         0.782252
