19
Iteration:  4655
 C        -3.919887        -0.591172         1.681594
 C        -2.439418        -0.166009         1.640487
 C        -1.341708        -1.227016         1.659389
 C        -0.514512        -1.123292         0.418204
 C         0.137669         0.107848         0.002934
 O         1.082793         0.014435        -0.829535
 C        -0.622610         1.361725         0.570908
 C        -2.054414         1.134807         1.107211
 O        -2.148139         1.105031         2.513753
 H        -4.265372        -0.633872         0.669743
 H        -4.141919        -1.667753         2.015558
 H        -4.472800         0.233848         2.147518
 H        -0.730332        -1.306479         2.532071
 H        -1.807403        -2.288470         1.702317
 H         0.102740        -2.046858         0.189260
 H        -1.101868        -1.271001        -0.478355
 H         0.096721         1.508316         1.477485
 H        -0.567837         2.188657        -0.042122
 H        -2.869399         1.702542         0.644226
