19
Iteration:  2124
 C        -3.818886        -0.200306         2.106331
 C        -2.430983        -0.118994         1.565885
 C        -1.881321        -1.359365         0.924794
 C        -0.457333        -1.323193         0.440557
 C         0.047091         0.081806         0.101031
 O         1.240390         0.269484        -0.003935
 C        -0.921360         1.197727         0.015498
 C        -1.985630         1.179477         1.084787
 O        -1.662550         0.817524         2.435970
 H        -3.811349        -0.759983         3.035319
 H        -4.182792         0.806239         2.258417
 H        -4.431096        -0.645657         1.307346
 H        -2.114047        -2.230925         1.568540
 H        -2.544823        -1.487451         0.039460
 H         0.252644        -1.621536         1.213438
 H        -0.347204        -1.980013        -0.474273
 H        -0.384970         2.133485         0.060514
 H        -1.560227         1.195744        -0.964874
 H        -2.578822         1.997788         0.974924
