19
Iteration:  3433charge 0 multiplicity 1
 C        -3.943560        -0.501539         1.654239
 C        -2.446686        -0.211025         1.686448
 C        -1.400713        -1.286642         1.533977
 C        -0.445357        -1.198280         0.297513
 C         0.136471         0.151606         0.054913
 O         1.097244         0.212083        -0.741459
 C        -0.680811         1.332523         0.534143
 C        -2.038421         1.212847         1.160558
 O        -2.083771         0.878518         2.566614
 H        -4.284189        -0.867324         2.605430
 H        -4.573483         0.432737         1.318679
 H        -4.057235        -1.307883         0.935623
 H        -0.747639        -1.269561         2.389474
 H        -1.852954        -2.324393         1.514892
 H         0.236170        -2.044182         0.434620
 H        -1.275945        -1.545285        -0.438103
 H        -0.165983         1.983718         1.299339
 H        -0.729095         1.918461        -0.361584
 H        -2.793264         1.869869         0.816068
