19
Iteration:   288charge 0 multiplicity 1
 C        -3.989394        -0.042927         1.454896
 C        -2.460096        -0.067406         1.466986
 C        -1.678914        -1.339578         1.071537
 C        -0.144423        -0.995515         1.191621
 C         0.092194         0.023690         0.119476
 O         0.710319        -0.203472        -0.939923
 C        -0.554668         1.322640         0.423789
 C        -1.844676         1.292802         1.265807
 O        -1.908523         0.609523         2.667190
 H        -4.417105        -0.961775         1.997575
 H        -4.293555         0.847403         2.140447
 H        -4.572379        -0.075686         0.552213
 H        -1.975503        -2.146580         1.685143
 H        -1.927519        -1.617342         0.103540
 H         0.181695        -0.562666         2.193082
 H         0.286329        -1.931965         0.957047
 H         0.313538         1.963544         0.801253
 H        -0.773658         1.829018        -0.496033
 H        -2.554561         2.095971         1.272190
