19
Iteration:  3983
 C        -3.775552        -0.417612         1.244399
 C        -2.290595        -0.207111         1.663773
 C        -1.516229        -1.467559         1.434807
 C        -0.038495        -1.113749         0.893396
 C         0.016926         0.202161         0.038598
 O         0.269332         0.204753        -1.171608
 C        -0.413628         1.472486         0.800076
 C        -1.803975         1.130904         1.276808
 O        -2.118059         0.798888         2.654920
 H        -4.200737        -1.396280         1.303942
 H        -4.514092         0.178039         1.904636
 H        -4.047207        -0.215061         0.199423
 H        -1.505787        -2.148454         2.221881
 H        -2.146745        -2.030912         0.701090
 H         0.635209        -0.969517         1.743833
 H         0.293412        -2.042826         0.373950
 H         0.170001         1.717647         1.667181
 H        -0.419356         2.299222        -0.050378
 H        -2.708925         1.642664         0.750396
