19
Iteration:  3079charge 0 multiplicity 1
 C        -3.921023        -0.455606         1.749837
 C        -2.523925        -0.070191         1.457723
 C        -1.762647        -1.275188         1.096872
 C        -0.290398        -1.142246         0.840070
 C         0.145796         0.059619         0.093039
 O         0.961836         0.114926        -0.805991
 C        -0.558811         1.413762         0.502333
 C        -1.922760         1.220634         1.175777
 O        -1.961750         0.737009         2.552325
 H        -3.869465        -0.881799         2.832763
 H        -4.484721         0.415759         1.981499
 H        -4.302045        -1.145911         0.954249
 H        -1.818456        -2.027932         1.959130
 H        -2.265942        -1.764723         0.239179
 H         0.142128        -1.036058         1.902827
 H         0.122754        -1.954659         0.250509
 H        -0.006902         2.024367         1.144398
 H        -0.797754         1.901806        -0.433617
 H        -2.575635         2.109288         1.007824
