19
Iteration:  2652charge 0 multiplicity 1
 C        -3.983750        -0.369280         1.566809
 C        -2.470629        -0.075723         1.716203
 C        -1.503918        -1.273947         1.581659
 C        -0.435611        -1.323804         0.404740
 C         0.167939         0.026439        -0.014268
 O         1.103632         0.244702        -0.716870
 C        -0.662632         1.215404         0.490394
 C        -1.961261         1.190099         1.153487
 O        -2.025342         0.909455         2.586493
 H        -4.489279        -1.220234         2.025208
 H        -4.842815         0.432657         1.560189
 H        -4.100744        -0.700601         0.563309
 H        -1.135427        -1.334767         2.600884
 H        -2.129498        -2.139074         1.482038
 H         0.354445        -2.060926         0.600996
 H        -1.111998        -1.587829        -0.397506
 H        -0.017041         1.897619         1.076405
 H        -0.878052         1.774567        -0.451286
 H        -2.555217         2.090273         1.019648
