19
Iteration:   557charge 0 multiplicity 1
 C        -3.903854        -0.311887         1.520413
 C        -2.400368        -0.115403         1.602885
 C        -1.460903        -1.259382         1.668759
 C        -0.640630        -1.298201         0.342979
 C         0.065086         0.000216        -0.068099
 O         1.085540         0.025506        -0.770719
 C        -0.436021         1.364519         0.635210
 C        -1.924872         1.213697         1.200354
 O        -2.209391         0.966142         2.567705
 H        -4.079796        -0.361714         2.657949
 H        -4.520423         0.423772         1.142863
 H        -4.261056        -1.299019         0.880277
 H        -0.794233        -1.116671         2.534405
 H        -1.997406        -2.182318         1.740652
 H         0.211862        -2.017863         0.571466
 H        -1.193151        -1.739739        -0.473992
 H         0.276107         1.563705         1.398147
 H        -0.461603         2.201604         0.013179
 H        -2.644422         1.824169         0.726490
