19
Iteration:  4628charge 0 multiplicity 1
 C        -3.820764        -0.484550         1.748874
 C        -2.370063        -0.110599         1.747068
 C        -1.405380        -1.353752         1.582432
 C        -0.595952        -1.298344         0.324835
 C         0.082928         0.061523        -0.007390
 O         1.061978         0.226877        -0.670241
 C        -0.585175         1.353015         0.551748
 C        -2.025147         1.118606         1.023868
 O        -2.172729         1.088633         2.460169
 H        -4.010263        -1.146176         0.817891
 H        -4.088804        -1.199061         2.516728
 H        -4.494764         0.397386         1.822404
 H        -0.649489        -1.571454         2.401346
 H        -1.944102        -2.239495         1.699033
 H         0.147205        -2.076381         0.333539
 H        -1.119119        -1.617285        -0.620822
 H         0.087638         1.632057         1.340539
 H        -0.471698         2.103576        -0.348012
 H        -2.914294         1.538078         0.519400
