19
Iteration:  3704charge 0 multiplicity 1
 C        -3.762631        -0.366931         2.261890
 C        -2.389178        -0.182328         1.532144
 C        -1.738650        -1.477042         0.915103
 C        -0.459185        -1.235833         0.191615
 C         0.083099         0.218718         0.281676
 O         1.270298         0.425339         0.060817
 C        -1.039359         1.236189         0.005550
 C        -2.188418         1.120776         1.052648
 O        -1.661713         0.813630         2.377953
 H        -3.571847        -0.949839         3.135949
 H        -4.289907         0.602742         2.504699
 H        -4.412261        -0.913166         1.672370
 H        -1.755308        -2.163234         1.765557
 H        -2.477516        -1.884027         0.271926
 H         0.327529        -2.037717         0.274087
 H        -0.655440        -1.266387        -0.937467
 H        -0.570735         2.264908        -0.028412
 H        -1.419051         1.029174        -0.916352
 H        -2.819202         2.024277         1.148783
