19
Iteration:   925charge 0 multiplicity 1
 C        -4.006743        -0.280573         1.761688
 C        -2.544672        -0.140303         1.466576
 C        -1.777581        -1.306704         1.119424
 C        -0.261370        -1.006432         0.901329
 C         0.077323         0.193318         0.031183
 O         0.874884         0.042782        -0.876808
 C        -0.484335         1.405634         0.571700
 C        -1.819863         1.141768         1.199301
 O        -1.906526         0.573391         2.493228
 H        -3.982576        -1.026443         2.609485
 H        -4.387556         0.592226         2.192653
 H        -4.623419        -0.655820         0.874324
 H        -1.936943        -2.034529         1.936470
 H        -2.066683        -1.768160         0.159658
 H         0.220579        -0.792152         1.886593
 H         0.208849        -1.833770         0.486313
 H         0.129103         1.705157         1.304557
 H        -0.577358         2.190510        -0.251928
 H        -2.533369         1.955848         1.087587
