19
Iteration:  1225
 C        -3.892488        -0.192692         2.167640
 C        -2.516152        -0.120278         1.507815
 C        -1.928994        -1.289507         0.749687
 C        -0.391769        -1.217972         0.728921
 C         0.067328         0.118617         0.160325
 O         1.211468         0.248288        -0.207111
 C        -0.902202         1.268223         0.110852
 C        -1.987484         1.180973         1.063785
 O        -1.572744         0.590800         2.366576
 H        -3.954723        -1.215251         2.701114
 H        -4.091145         0.466305         2.979317
 H        -4.743844        -0.147709         1.422050
 H        -2.162288        -2.296681         1.086189
 H        -2.325999        -1.122197        -0.260140
 H        -0.085765        -1.391959         1.791468
 H         0.044818        -1.939538         0.047169
 H        -0.228239         2.155800         0.301903
 H        -1.166010         1.411377        -0.891114
 H        -2.724517         1.964667         1.186729
