19
Iteration:  4261charge 0 multiplicity 1
 C        -3.762220        -0.274017         2.239746
 C        -2.455639        -0.124758         1.570908
 C        -1.884133        -1.342428         0.783531
 C        -0.303663        -1.354295         0.521344
 C        -0.016099         0.155226         0.165757
 O         1.090329         0.530561         0.004996
 C        -1.097063         1.214366        -0.082969
 C        -1.942820         1.231152         1.114560
 O        -1.499158         0.538825         2.341344
 H        -3.730529        -1.162720         2.935408
 H        -3.954197         0.668017         2.811431
 H        -4.616355        -0.489600         1.548438
 H        -2.225925        -2.218226         1.226713
 H        -2.368205        -1.306679        -0.275305
 H         0.191882        -1.574156         1.501008
 H        -0.141583        -2.045166        -0.285958
 H        -0.607159         2.266847        -0.358592
 H        -1.742819         0.958095        -0.947774
 H        -2.561928         2.017899         1.341982
