19
Iteration:  3778charge 0 multiplicity 1
 C        -3.877927        -0.394604         1.866025
 C        -2.443409        -0.139154         1.571865
 C        -1.767547        -1.467247         1.060938
 C        -0.297299        -1.131928         0.669522
 C         0.092790         0.242783         0.159423
 O         1.076832         0.371797        -0.524163
 C        -0.896970         1.370328         0.206147
 C        -2.033541         1.173791         1.187532
 O        -1.718689         0.585663         2.518997
 H        -4.095681        -1.394666         2.193497
 H        -4.050160         0.270438         2.824866
 H        -4.516484         0.009637         1.100448
 H        -1.633343        -2.280554         1.851249
 H        -2.439446        -1.935414         0.299186
 H         0.407814        -1.297429         1.491226
 H         0.105559        -1.808449        -0.114378
 H        -0.509449         2.385896         0.191932
 H        -1.453840         1.168936        -0.794681
 H        -2.705697         2.000367         1.164988
