19
Iteration:  1825charge 0 multiplicity 1
 C        -3.938629        -0.529802         1.660878
 C        -2.471662        -0.040160         1.737655
 C        -1.429038        -1.167730         1.592943
 C        -0.792236        -1.293433         0.189640
 C         0.100070        -0.058014        -0.103031
 O         1.247665        -0.023720        -0.545832
 C        -0.434599         1.317697         0.591363
 C        -1.921629         1.221585         1.049804
 O        -2.191197         1.155465         2.511052
 H        -4.141405        -1.372918         2.356411
 H        -4.622324         0.264770         1.918371
 H        -4.236024        -0.804308         0.639950
 H        -0.626447        -1.143183         2.408737
 H        -1.808051        -2.249667         1.895857
 H        -0.190096        -2.207005         0.109036
 H        -1.701837        -1.323439        -0.511352
 H         0.186201         1.569256         1.448691
 H        -0.256596         2.162413        -0.133215
 H        -2.711509         1.885175         0.572129
