19
Iteration:  4178charge 0 multiplicity 1
 C        -3.969003        -0.387481         2.057694
 C        -2.490712        -0.191994         1.481232
 C        -1.832315        -1.411231         1.043469
 C        -0.341953        -1.240515         0.623692
 C         0.127028         0.191379         0.084390
 O         1.146019         0.446032        -0.593670
 C        -0.808900         1.337220         0.371021
 C        -2.021848         1.182970         1.136659
 O        -1.700800         0.665585         2.458173
 H        -4.113752        -1.379210         2.340829
 H        -4.051393         0.268646         3.001919
 H        -4.815100        -0.004226         1.440188
 H        -1.748121        -2.250346         1.877955
 H        -2.310971        -1.906224         0.229802
 H         0.285246        -1.387097         1.556393
 H         0.060510        -2.126832         0.073213
 H        -0.256645         2.226826         0.562819
 H        -1.127421         1.311131        -0.735512
 H        -2.839229         1.987982         1.015474
