19
Iteration:  2539
 C        -3.844799        -0.526095         1.482817
 C        -2.416107        -0.077972         1.546137
 C        -1.362284        -1.183869         1.625897
 C        -0.566423        -1.270668         0.330878
 C         0.059515         0.064852        -0.043378
 O         0.957136        -0.007375        -0.845144
 C        -0.477513         1.354814         0.827902
 C        -1.946442         1.268154         1.160880
 O        -2.230996         0.983961         2.585663
 H        -4.105858        -0.820885         2.525137
 H        -4.512303         0.201457         1.135749
 H        -3.925356        -1.542918         0.940898
 H        -0.730114        -0.803113         2.408863
 H        -1.748334        -2.123071         1.947813
 H         0.177726        -2.052425         0.282086
 H        -1.338240        -1.389704        -0.458306
 H         0.055965         1.215515         1.773448
 H        -0.151972         2.348260         0.400502
 H        -2.562235         2.077009         0.790395
