19
Iteration:  3269
 C        -3.840675        -0.504676         1.248365
 C        -2.439333        -0.149218         1.504297
 C        -1.455907        -1.272197         1.808149
 C        -0.298876        -1.203247         0.736973
 C         0.027792         0.091226        -0.019077
 O         0.541371         0.258008        -1.092848
 C        -0.294663         1.316956         0.856294
 C        -1.840530         1.166942         1.167160
 O        -2.181121         0.891558         2.531108
 H        -4.169069        -1.526167         1.434605
 H        -4.444102         0.065200         2.085909
 H        -4.291286        -0.270238         0.276307
 H        -0.983420        -1.247179         2.766829
 H        -1.892926        -2.335618         1.653813
 H         0.460321        -1.479067         1.439085
 H        -0.312566        -1.957182        -0.061788
 H         0.412662         1.356086         1.648410
 H        -0.140403         2.098945         0.146437
 H        -2.579790         1.845313         0.733639
