19
Iteration:  3400
 C        -3.926191        -0.598718         1.645739
 C        -2.406157        -0.147904         1.606832
 C        -1.364437        -1.271830         1.607574
 C        -0.571576        -1.286804         0.290817
 C         0.039442         0.149468        -0.049048
 O         1.007576         0.311571        -0.793380
 C        -0.468218         1.322035         0.723724
 C        -1.922535         1.142064         1.153082
 O        -2.223790         0.963896         2.492420
 H        -4.250805        -0.345183         2.625824
 H        -4.607508         0.077424         0.931926
 H        -3.995502        -1.656620         1.437125
 H        -0.782032        -0.902237         2.452280
 H        -1.568305        -2.295476         2.001844
 H         0.228211        -2.057312         0.219816
 H        -1.406528        -1.748315        -0.439776
 H         0.140652         1.135668         1.641464
 H        -0.123058         2.249538         0.356728
 H        -2.608949         1.732330         0.610710
