19
Iteration:  1131
 C        -3.882075        -0.202963         1.486767
 C        -2.380285        -0.174126         1.483566
 C        -1.625383        -1.375856         1.141452
 C        -0.168335        -1.082563         1.001596
 C         0.056932         0.114332         0.123529
 O         0.559085         0.040673        -1.008213
 C        -0.469583         1.415915         0.698615
 C        -1.821297         1.194525         1.242586
 O        -2.009265         0.633029         2.570542
 H        -4.324349        -0.532087         2.444614
 H        -4.280374         0.770685         1.432989
 H        -4.332104        -0.769921         0.652203
 H        -1.794667        -2.045014         2.024088
 H        -2.091614        -1.831859         0.264926
 H         0.369193        -0.987426         1.955849
 H         0.224904        -1.854397         0.399699
 H         0.101574         1.757904         1.546628
 H        -0.510361         2.361377        -0.037973
 H        -2.550297         1.949893         0.949028
