19
Iteration:  3866charge 0 multiplicity 1
 C        -3.888720        -0.476250         1.732834
 C        -2.450575        -0.200311         1.403698
 C        -1.572487        -1.360269         0.956227
 C        -0.094560        -1.039184         0.969414
 C         0.033374         0.221923         0.184899
 O         0.582944         0.086194        -0.878415
 C        -0.615676         1.576851         0.586084
 C        -1.959103         1.249883         1.219302
 O        -1.843595         0.595872         2.530041
 H        -3.948229        -0.907645         2.755676
 H        -4.658748         0.377195         1.608328
 H        -4.129429        -1.343399         1.149851
 H        -1.765107        -2.283258         1.586574
 H        -1.981003        -1.828113        -0.008893
 H         0.260217        -0.923123         1.976052
 H         0.422491        -1.864960         0.431167
 H        -0.079633         2.095698         1.391946
 H        -0.644189         2.293901        -0.293775
 H        -2.601891         2.076541         1.114976
