19
Iteration:  1278charge 0 multiplicity 1
 C        -3.708690        -0.195588         2.323770
 C        -2.434786        -0.045463         1.502634
 C        -1.993952        -1.302980         0.783687
 C        -0.504804        -1.222027         0.401835
 C         0.030652         0.136278         0.102939
 O         1.169258         0.335764         0.426563
 C        -1.085787         1.146019        -0.284249
 C        -1.915925         1.212997         0.992865
 O        -1.465461         0.531818         2.318578
 H        -3.816516        -1.051780         3.022698
 H        -3.900063         0.741872         2.874703
 H        -4.637775        -0.260994         1.708705
 H        -2.070268        -2.174279         1.364403
 H        -2.633903        -1.383581        -0.098124
 H         0.083572        -1.566706         1.250095
 H        -0.320156        -1.756682        -0.580204
 H        -0.571634         2.185107        -0.607970
 H        -1.525573         0.757140        -1.250866
 H        -2.345107         2.158456         1.315293
