19
Iteration:  1020
 C        -3.814931        -0.195191         0.970652
 C        -2.336308        -0.120244         1.363878
 C        -1.445899        -1.289250         1.469113
 C         0.003341        -1.040209         1.147934
 C        -0.092392         0.088687         0.117757
 O        -0.095412         0.012844        -1.109680
 C        -0.217887         1.336422         0.828827
 C        -1.703176         1.197235         1.378036
 O        -2.010181         0.583199         2.593185
 H        -4.256514        -1.067294         1.500546
 H        -4.320835         0.678772         1.274112
 H        -3.910946        -0.155403        -0.113433
 H        -1.503998        -1.726519         2.467553
 H        -1.757435        -1.933667         0.674528
 H         0.436787        -0.608581         2.068568
 H         0.576552        -1.872204         0.774797
 H         0.472121         1.367176         1.689445
 H        -0.287795         2.274070         0.143038
 H        -2.368419         2.044679         1.235293
