19
Iteration:  2302
 C        -4.109694        -0.239056         1.562939
 C        -2.498465        -0.169017         1.512330
 C        -1.610351        -1.368538         0.906521
 C        -0.075132        -1.075965         1.205303
 C         0.182947         0.152049         0.208562
 O         0.468895        -0.043830        -0.942002
 C        -0.477746         1.408525         0.557696
 C        -1.892522         1.198625         1.203676
 O        -1.745907         0.693993         2.537282
 H        -4.435530        -0.670829         2.524105
 H        -4.491064         0.812306         1.325143
 H        -4.408230        -1.035271         0.862415
 H        -1.976706        -2.336795         1.383813
 H        -1.839321        -1.224571        -0.169866
 H        -0.247469        -0.765263         2.305467
 H         0.711996        -1.846992         1.116591
 H         0.058909         1.931513         1.240680
 H        -0.483853         2.063182        -0.332489
 H        -2.550348         2.058659         1.104384
