19
Iteration:   637
 C        -3.904883        -0.419717         1.947417
 C        -2.460942        -0.023145         1.573835
 C        -1.622190        -1.305296         1.304773
 C        -0.605974        -1.238640         0.177582
 C         0.055952         0.060732         0.103035
 O         1.254678        -0.022221        -0.120205
 C        -0.741797         1.334060         0.174378
 C        -2.031443         1.245020         1.071162
 O        -1.785904         0.972096         2.445159
 H        -4.055321        -1.344261         2.515046
 H        -4.233723         0.580372         2.505019
 H        -4.629176        -0.501360         1.101279
 H        -1.242283        -1.530172         2.325290
 H        -2.291455        -2.229804         1.023901
 H         0.145768        -1.973564         0.290451
 H        -1.104750        -1.482126        -0.728515
 H        -0.131138         2.176898         0.325858
 H        -1.292059         1.420896        -0.818450
 H        -2.771510         2.133654         0.828572
