19
Iteration:  2706
 C        -3.970692        -0.401427         1.854450
 C        -2.472801        -0.135859         1.498191
 C        -1.646003        -1.360264         1.402301
 C        -0.493264        -1.248889         0.452758
 C         0.118651         0.116398         0.089817
 O         1.186867         0.180816        -0.482719
 C        -0.676309         1.389693         0.345275
 C        -2.046674         1.235655         1.065386
 O        -1.872474         0.809250         2.439192
 H        -4.069222        -0.619482         2.938175
 H        -4.667005         0.553829         1.649703
 H        -4.431946        -1.249518         1.334988
 H        -1.277909        -1.432391         2.430260
 H        -2.255084        -2.208687         1.127811
 H         0.356668        -1.924427         0.729197
 H        -0.789568        -1.701416        -0.562077
 H        -0.036054         1.936214         0.978418
 H        -0.682946         1.921043        -0.630701
 H        -2.781853         2.025039         0.979639
