19
Iteration:  2860
 C        -3.682340        -0.331189         2.380611
 C        -2.429704        -0.113898         1.555016
 C        -1.735459        -1.355000         0.995145
 C        -0.544025        -1.380066        -0.073486
 C        -0.004422         0.081291         0.130526
 O         1.068931         0.324360         0.657539
 C        -0.995524         1.177841        -0.149012
 C        -2.065718         1.218583         0.935522
 O        -1.531378         0.941997         2.153009
 H        -3.323158        -0.938290         3.241237
 H        -4.001643         0.726692         2.570284
 H        -4.324153        -0.908268         1.755725
 H        -1.395347        -2.133423         1.704996
 H        -2.589156        -1.917999         0.567668
 H         0.245432        -2.123334         0.306795
 H        -0.851646        -1.431136        -1.132803
 H        -0.454591         2.105039        -0.100321
 H        -1.469473         1.039759        -1.221958
 H        -2.794948         2.043443         0.854648
