19
Iteration:  4622charge 0 multiplicity 1
 C        -3.842202        -0.517282         1.770895
 C        -2.367449        -0.152963         1.669532
 C        -1.397313        -1.347572         1.626753
 C        -0.620784        -1.315094         0.304872
 C         0.046371         0.021373        -0.016348
 O         1.060952         0.288186        -0.627796
 C        -0.590292         1.349615         0.494125
 C        -1.963763         1.162130         1.021329
 O        -2.157161         1.063003         2.465181
 H        -4.007642        -1.130445         0.930640
 H        -4.237769        -1.020431         2.722029
 H        -4.542035         0.335989         1.712494
 H        -0.659787        -1.377678         2.408180
 H        -2.092773        -2.278921         1.725522
 H         0.235214        -2.041434         0.509876
 H        -1.206965        -1.465147        -0.596786
 H         0.253448         1.517224         1.261481
 H        -0.475193         2.013387        -0.277805
 H        -2.765804         1.723483         0.528040
