19
Iteration:   969charge 0 multiplicity 1
 C        -3.894236        -0.316057         1.354130
 C        -2.388223        -0.078234         1.528501
 C        -1.591975        -1.320830         1.187033
 C        -0.013612        -1.174070         0.977968
 C         0.068263         0.060150         0.149275
 O         0.310701         0.076304        -1.032712
 C        -0.406384         1.292494         0.811505
 C        -1.829305         1.223394         1.228173
 O        -1.998044         0.814966         2.624192
 H        -4.364874        -0.855249         2.212355
 H        -4.374611         0.631797         1.313997
 H        -4.030429        -0.822966         0.337715
 H        -1.709764        -2.239987         1.715530
 H        -1.903175        -1.432993         0.135281
 H         0.619121        -1.227556         1.890799
 H         0.208616        -1.981045         0.360350
 H         0.219142         1.557399         1.576402
 H        -0.396403         2.117069         0.017113
 H        -2.486097         2.031183         0.913014
