19
Iteration:  1693charge 0 multiplicity 1
 C        -3.754470        -0.380067         1.123582
 C        -2.313468        -0.021054         1.471951
 C        -1.513335        -1.339415         1.768734
 C        -0.289487        -1.331908         0.869053
 C        -0.011711        -0.050064         0.217345
 O         0.158555         0.176964        -0.999387
 C        -0.088508         1.239254         0.945176
 C        -1.711207         1.271476         1.017597
 O        -2.178797         1.032645         2.387992
 H        -4.213704        -1.170700         1.827405
 H        -4.405719         0.402960         1.113898
 H        -3.774807        -0.974867         0.139310
 H        -1.212907        -1.162537         2.841636
 H        -2.305039        -2.238217         1.606116
 H         0.562224        -1.787021         1.275303
 H        -0.449538        -2.109788         0.111605
 H         0.380728         1.258561         1.868984
 H         0.233811         1.974102         0.283895
 H        -2.197413         2.090473         0.517287
