19
Iteration:   602charge 0 multiplicity 1
 C        -3.979941        -0.342747         1.749645
 C        -2.492673        -0.118187         1.590947
 C        -1.627744        -1.313426         1.567071
 C        -0.663316        -1.305018         0.331287
 C         0.139662         0.056745         0.036078
 O         1.236384         0.134870        -0.485855
 C        -0.637619         1.305221         0.395085
 C        -1.963158         1.165127         1.036385
 O        -1.861164         0.948259         2.496539
 H        -4.246892        -0.870167         2.710403
 H        -4.448774         0.637466         1.874978
 H        -4.363045        -0.735827         0.689990
 H        -1.091906        -1.322641         2.533710
 H        -2.238746        -2.234734         1.470361
 H         0.082893        -2.135566         0.330762
 H        -1.296632        -1.403294        -0.540499
 H        -0.013097         1.959230         0.909631
 H        -0.759478         1.826234        -0.562982
 H        -2.775575         1.861011         0.718556
