19
Iteration:  4196
 C        -3.877340        -0.341849         2.130421
 C        -2.601142        -0.160517         1.529686
 C        -1.792900        -1.392637         1.018554
 C        -0.315445        -1.145711         0.574513
 C         0.091968         0.187238         0.026073
 O         1.253213         0.383247        -0.422081
 C        -0.917065         1.326350         0.090406
 C        -2.009087         1.172009         1.167408
 O        -1.773145         0.562613         2.510197
 H        -4.036986        -1.451464         2.257038
 H        -3.833153         0.204815         3.070845
 H        -4.683061         0.129233         1.495171
 H        -1.759376        -2.066015         1.853511
 H        -2.424967        -1.882590         0.238311
 H         0.422158        -1.390303         1.370929
 H         0.089258        -1.863176        -0.124843
 H        -0.190772         2.193947         0.315129
 H        -1.488696         1.494311        -0.786324
 H        -2.571738         2.042394         1.235089
