19
Iteration:  3621charge 0 multiplicity 1
 C        -3.706365        -0.260958         2.320432
 C        -2.377194        -0.221983         1.566228
 C        -1.705000        -1.456391         1.008063
 C        -0.525252        -1.180357        -0.179651
 C         0.036109         0.115479         0.173678
 O         1.087279         0.453845         0.614045
 C        -1.114219         1.222572        -0.169068
 C        -2.178692         1.086445         0.953518
 O        -1.408781         0.760472         2.231888
 H        -3.443853        -0.135831         3.446132
 H        -4.474883         0.492062         2.133535
 H        -4.189769        -1.331375         2.121360
 H        -1.164798        -1.774487         1.925906
 H        -2.476179        -2.284583         0.647603
 H         0.146423        -2.045267        -0.099382
 H        -1.001259        -0.974389        -1.132732
 H        -0.496227         2.148370        -0.005329
 H        -1.809370         1.277642        -1.107765
 H        -2.934509         1.830073         1.260242
