19
Iteration:  2237
 C        -4.002559        -0.337147         1.597986
 C        -2.501166        -0.070921         1.638462
 C        -1.813861        -1.320620         1.138316
 C        -0.273853        -1.199783         0.878758
 C         0.094520         0.077030         0.106937
 O         0.932650         0.105120        -0.803616
 C        -0.609983         1.358822         0.453072
 C        -1.897372         1.199097         1.211779
 O        -1.770051         0.768295         2.539228
 H        -4.261607        -1.213183         2.220430
 H        -4.655331         0.406914         2.074089
 H        -4.476613        -0.434694         0.607916
 H        -2.004930        -2.166532         1.880001
 H        -2.283157        -1.513675         0.136002
 H         0.331704        -1.070994         1.843894
 H         0.154144        -2.125485         0.433506
 H         0.185502         2.106296         0.968165
 H        -0.788706         1.812195        -0.561171
 H        -2.604927         2.026267         1.099422
