19
Iteration:  3679
 C        -3.795828        -0.483556         2.365722
 C        -2.441794        -0.159721         1.562896
 C        -1.813124        -1.356838         0.997658
 C        -0.493608        -1.237519         0.065579
 C         0.079563         0.187708         0.036004
 O         1.196582         0.469758         0.347270
 C        -0.980156         1.280190        -0.068075
 C        -2.076370         1.133960         0.984284
 O        -1.564078         0.751249         2.267456
 H        -3.453449        -0.692055         3.381945
 H        -4.477869         0.393114         2.279573
 H        -4.294469        -1.450668         2.046884
 H        -1.663564        -1.952995         1.947311
 H        -2.598351        -1.902915         0.465172
 H         0.285792        -1.922103         0.412676
 H        -0.702568        -1.638898        -0.994400
 H        -0.477349         2.206423        -0.007819
 H        -1.627488         1.315131        -0.989234
 H        -2.692444         2.032971         1.089818
