19
Iteration:  3824charge 0 multiplicity 1
 C        -4.023680        -0.475436         1.844070
 C        -2.526377        -0.099946         1.563954
 C        -1.689867        -1.235721         0.906214
 C        -0.138900        -0.962836         0.943345
 C         0.105617         0.111360         0.037475
 O         0.976276         0.251132        -0.844606
 C        -0.811649         1.313727         0.348598
 C        -1.995485         1.164653         1.293716
 O        -1.779590         0.528544         2.590852
 H        -4.058558        -1.286205         2.577967
 H        -4.531860         0.420951         2.243279
 H        -4.406149        -0.738957         0.910634
 H        -1.948498        -2.264704         1.323987
 H        -1.880282        -1.425420        -0.111498
 H         0.032317        -0.531132         1.952167
 H         0.547945        -1.870347         0.858988
 H        -0.012873         1.930432         0.902803
 H        -1.022448         1.882514        -0.545980
 H        -2.758156         1.895267         1.468982
