19
Iteration:  3529
 C        -3.883031        -0.395636         2.096557
 C        -2.465207        -0.227357         1.601430
 C        -1.498589        -1.430745         1.344110
 C        -0.616144        -1.204584         0.141338
 C         0.091762         0.187552         0.010959
 O         1.312937         0.328392        -0.009634
 C        -0.883288         1.372187         0.005889
 C        -2.070444         1.064100         0.956693
 O        -1.862675         0.837488         2.472492
 H        -3.875230        -1.397267         2.396499
 H        -4.001307         0.354483         2.908774
 H        -4.520593        -0.196619         1.294065
 H        -0.951682        -1.770454         2.218597
 H        -2.220416        -2.176721         1.035825
 H         0.189251        -1.917079         0.128843
 H        -1.125298        -1.259614        -0.745149
 H        -0.362195         2.359587         0.312398
 H        -1.354422         1.490905        -0.972317
 H        -2.927111         1.760433         0.928013
