19
Iteration:  1855
 C        -3.911407        -0.360132         1.807055
 C        -2.417092        -0.076785         1.575548
 C        -1.414014        -1.156962         1.465899
 C        -0.714590        -1.325018         0.124043
 C         0.058751        -0.065728        -0.008646
 O         1.220100         0.008783        -0.290345
 C        -0.624448         1.271038         0.476591
 C        -2.054332         1.199639         1.016493
 O        -2.024569         1.014895         2.444651
 H        -4.062783        -0.975986         2.734299
 H        -4.199166         0.592566         2.068862
 H        -4.504744        -0.731058         0.899004
 H        -0.710036        -0.764523         2.132513
 H        -1.541303        -2.106055         1.784997
 H        -0.115242        -2.183149        -0.069736
 H        -1.428459        -1.348797        -0.715787
 H        -0.198195         1.603344         1.503396
 H        -0.495069         2.029402        -0.297073
 H        -2.803471         1.952807         0.787913
