19
Iteration:  2754charge 0 multiplicity 1
 C        -3.853354        -0.356287         2.039055
 C        -2.483993        -0.147603         1.614009
 C        -1.695298        -1.400094         1.224197
 C        -0.517027        -1.279419         0.278441
 C         0.172398         0.112336         0.141030
 O         1.368237         0.190531        -0.208412
 C        -0.842236         1.341688         0.093260
 C        -2.032478         1.136144         1.038786
 O        -1.946892         0.954749         2.471265
 H        -3.992525        -1.046110         2.962128
 H        -4.220346         0.604881         2.420730
 H        -4.652527        -0.720677         1.325681
 H        -1.372510        -1.983782         2.093502
 H        -2.529421        -1.928997         0.635717
 H         0.357444        -2.039950         0.454807
 H        -0.836686        -1.545849        -0.727800
 H        -0.195742         2.325254         0.408735
 H        -1.299242         1.502880        -0.855147
 H        -2.817729         1.915480         0.723136
