19
Iteration:   940
 C        -3.990823        -0.276735         1.679887
 C        -2.475747        -0.117860         1.411541
 C        -1.671020        -1.435134         1.109720
 C        -0.168374        -1.101970         0.957175
 C         0.114325         0.092269         0.079499
 O         0.701656         0.089120        -1.005411
 C        -0.446219         1.416440         0.688458
 C        -1.901594         1.221502         1.206882
 O        -1.977665         0.698902         2.541812
 H        -4.231402        -0.885121         2.539982
 H        -4.343290         0.756102         1.997782
 H        -4.546329        -0.700549         0.862222
 H        -1.756248        -2.287086         1.892501
 H        -2.124984        -1.873804         0.169226
 H         0.298519        -0.932803         1.938038
 H         0.345878        -2.056912         0.577152
 H         0.268569         1.746520         1.568110
 H        -0.352447         2.217234         0.034497
 H        -2.538838         2.102328         0.999712
