19
Iteration:  4242charge 0 multiplicity 1
 C        -3.799307        -0.374642         2.095196
 C        -2.374472        -0.157379         1.601399
 C        -1.963672        -1.390000         0.797791
 C        -0.483598        -1.203457         0.600892
 C         0.052194         0.162749         0.144475
 O         1.174191         0.526658        -0.130593
 C        -1.073174         1.139008        -0.003278
 C        -2.046554         1.184668         1.172561
 O        -1.385290         0.665354         2.399524
 H        -3.950815        -1.401815         2.350101
 H        -4.040313         0.400489         2.937615
 H        -4.461175        -0.123148         1.191004
 H        -2.251940        -2.203539         1.534313
 H        -2.655890        -1.443166        -0.020903
 H         0.217275        -1.568592         1.409666
 H        -0.172202        -1.894064        -0.207740
 H        -0.627306         2.152468         0.009319
 H        -1.545754         0.943654        -0.949400
 H        -2.703008         2.025003         1.326271
