19
Iteration:  2766charge 0 multiplicity 1
 C        -3.862763        -0.302278         2.059813
 C        -2.439596        -0.151521         1.548038
 C        -1.704626        -1.403656         1.218782
 C        -0.512598        -1.204956         0.279374
 C         0.103459         0.150082         0.120905
 O         1.269338         0.163880        -0.074616
 C        -0.873799         1.323612         0.108137
 C        -2.072387         1.139165         1.003474
 O        -1.785703         0.881567         2.391904
 H        -3.741569        -1.179859         2.751798
 H        -4.222119         0.547988         2.547149
 H        -4.498521        -0.632742         1.180220
 H        -1.394583        -1.768846         2.214366
 H        -2.368941        -2.256705         0.887988
 H         0.297321        -1.939289         0.530771
 H        -0.861929        -1.365232        -0.737784
 H        -0.321863         2.358405         0.347484
 H        -1.148882         1.388851        -0.942908
 H        -2.972353         1.803092         0.873838
