19
Iteration:  4324
 C        -3.740889        -0.377702         2.414628
 C        -2.456547        -0.121517         1.500520
 C        -1.957523        -1.344325         0.755894
 C        -0.477601        -1.280928         0.421173
 C         0.021633         0.098683         0.213054
 O         1.174515         0.459218         0.181722
 C        -1.005835         1.275885        -0.086977
 C        -2.081049         1.202017         1.049434
 O        -1.423785         0.669427         2.180626
 H        -3.418510        -0.218720         3.488701
 H        -4.541325         0.272672         2.325076
 H        -4.146750        -1.361181         2.339953
 H        -2.058212        -2.253408         1.423798
 H        -2.596635        -1.601482        -0.114884
 H         0.249783        -1.841026         0.955030
 H        -0.445836        -1.775151        -0.601836
 H        -0.413181         2.199161         0.011434
 H        -1.329527         1.307360        -1.165480
 H        -2.775088         2.078599         1.119487
