19
Iteration:  3063charge 0 multiplicity 1
 C        -4.017872        -0.421650         1.869832
 C        -2.480883        -0.096162         1.580024
 C        -1.754857        -1.387496         1.163203
 C        -0.274040        -1.269784         0.703122
 C         0.110464         0.125730         0.093443
 O         1.061685         0.214677        -0.703071
 C        -0.570446         1.329313         0.464128
 C        -2.000592         1.245316         1.088247
 O        -1.955387         0.830438         2.470390
 H        -4.024110        -1.173728         2.617304
 H        -4.561079         0.576298         2.178141
 H        -4.450954        -0.873575         0.943307
 H        -1.882631        -2.152839         1.893621
 H        -2.278982        -1.657124         0.242512
 H         0.480727        -1.385702         1.460787
 H         0.044663        -2.096015        -0.001073
 H         0.174128         1.926328         1.152048
 H        -0.512580         2.050117        -0.390871
 H        -2.690644         2.047235         0.857611
