19
Iteration:   719
 C        -3.690185        -0.171034         2.304745
 C        -2.395253        -0.078298         1.520005
 C        -1.749210        -1.386900         1.057807
 C        -0.652181        -1.342842         0.003022
 C        -0.065664         0.078289         0.256282
 O         1.079322         0.226098         0.603628
 C        -1.004017         1.241807        -0.170042
 C        -2.002598         1.281817         0.917427
 O        -1.434143         0.744172         2.082135
 H        -3.404485        -0.508077         3.344739
 H        -4.287970         0.666867         2.335620
 H        -4.327215        -0.963969         1.824862
 H        -1.447542        -1.952834         1.984907
 H        -2.559808        -1.934139         0.600353
 H         0.185693        -2.112144         0.187674
 H        -1.113573        -1.456462        -1.002066
 H        -0.316900         2.247547        -0.028791
 H        -1.429494         1.256946        -1.176858
 H        -2.751314         2.042643         1.087157
