19
Iteration:  2188charge 0 multiplicity 1
 C        -3.961235        -0.185673         1.889409
 C        -2.532555        -0.103495         1.419546
 C        -1.697356        -1.442397         1.276321
 C        -0.383596        -1.311385         0.554825
 C         0.066460         0.092793        -0.031915
 O         1.193414         0.177421        -0.447770
 C        -0.711359         1.379442         0.290992
 C        -1.915906         1.223183         1.140872
 O        -1.923262         0.726089         2.511167
 H        -4.449984        -1.161537         2.101919
 H        -4.056537         0.529294         2.783051
 H        -4.773699         0.186048         1.170153
 H        -1.498427        -1.734923         2.277863
 H        -2.331448        -2.123249         0.724895
 H         0.327364        -1.325357         1.379639
 H         0.062988        -2.154281        -0.002082
 H        -0.043412         2.076300         0.506710
 H        -1.127457         1.662269        -0.703026
 H        -2.656252         2.038437         1.042483
