19
Iteration:   410charge 0 multiplicity 1
 C        -3.687454        -0.279063         1.053872
 C        -2.291695        -0.083717         1.460691
 C        -1.494377        -1.331156         1.712279
 C        -0.243404        -1.281006         0.871538
 C         0.011399         0.025023         0.076980
 O         0.169831         0.011866        -1.109798
 C        -0.209343         1.293295         0.956006
 C        -1.687982         1.210135         1.198637
 O        -2.268354         0.998154         2.575173
 H        -4.315969        -0.592075         1.881883
 H        -4.233674         0.771155         0.660394
 H        -3.730752        -0.917202         0.160943
 H        -1.258440        -1.462822         2.725581
 H        -2.148849        -2.092850         1.435146
 H         0.575029        -1.481751         1.544828
 H        -0.312132        -2.095243         0.027423
 H         0.468567         1.092271         1.837869
 H         0.143908         2.284967         0.506198
 H        -2.272756         1.975078         0.580819
