19
Iteration:  4633
 C        -3.813627        -0.487358         1.711950
 C        -2.375885        -0.105768         1.796713
 C        -1.402849        -1.337908         1.579548
 C        -0.563366        -1.285023         0.309686
 C         0.077052         0.100555         0.020368
 O         1.086195         0.167975        -0.719057
 C        -0.595607         1.342614         0.569388
 C        -2.067571         1.094961         1.027670
 O        -2.170740         1.113411         2.468866
 H        -4.068134        -0.977609         0.803321
 H        -3.933454        -1.310177         2.492424
 H        -4.429243         0.412266         1.840768
 H        -0.746242        -1.493615         2.414621
 H        -1.997177        -2.343175         1.576830
 H         0.216847        -2.117200         0.215937
 H        -1.132022        -1.633326        -0.549564
 H        -0.071692         1.818585         1.495803
 H        -0.533841         2.071216        -0.163354
 H        -2.912978         1.504913         0.469104
