19
Iteration:  1083
 C        -3.793901        -0.356529         1.157281
 C        -2.399492        -0.041460         1.410152
 C        -1.534587        -1.264177         1.254037
 C        -0.012189        -1.068294         1.120813
 C         0.042096         0.073946         0.145834
 O         0.000095        -0.016384        -1.060838
 C        -0.242357         1.342444         0.844880
 C        -1.741787         1.261242         1.277267
 O        -2.013592         0.716705         2.604684
 H        -3.980705        -1.364455         1.623873
 H        -4.608935         0.242729         1.659305
 H        -3.955631        -0.508052         0.079721
 H        -1.831472        -2.108887         2.011673
 H        -1.980741        -1.576245         0.246211
 H         0.358611        -0.798709         2.137913
 H         0.454503        -2.048071         0.774499
 H         0.394678         1.512043         1.757190
 H        -0.084420         2.145133         0.212089
 H        -2.254934         2.211122         1.039834
