19
Iteration:   154
 C        -3.857839        -0.052836         2.166021
 C        -2.464809        -0.028574         1.482365
 C        -1.963381        -1.372092         1.081197
 C        -0.664076        -1.373296         0.245166
 C         0.044625         0.019789         0.219082
 O         1.257422         0.190691         0.263952
 C        -0.863385         1.277800        -0.033767
 C        -1.895221         1.213388         0.966103
 O        -1.518998         0.698846         2.229351
 H        -3.629371        -0.378991         3.264331
 H        -4.240968         0.932526         2.166190
 H        -4.541887        -0.725035         1.520341
 H        -1.618508        -1.858161         1.959954
 H        -2.739059        -1.942255         0.726324
 H        -0.003061        -2.273078         0.467445
 H        -1.013800        -1.482768        -0.774351
 H        -0.139053         2.121833         0.164828
 H        -1.230960         1.358818        -1.014469
 H        -2.525144         2.084057         0.908827
