19
Iteration:  3524charge 0 multiplicity 1
 C        -3.881422        -0.374197         2.052685
 C        -2.441849        -0.205883         1.640329
 C        -1.510145        -1.410850         1.367472
 C        -0.586811        -1.199638         0.158583
 C         0.116559         0.204574        -0.032048
 O         1.297177         0.321307        -0.048987
 C        -0.872053         1.357356         0.031295
 C        -2.051633         1.099975         1.017731
 O        -1.909395         0.798278         2.465799
 H        -4.023895        -1.429485         2.513189
 H        -4.000764         0.253307         2.929324
 H        -4.607138        -0.074718         1.205425
 H        -0.977850        -1.791601         2.286546
 H        -2.140515        -2.330086         1.188263
 H         0.226210        -1.961424         0.085422
 H        -1.058365        -1.230129        -0.955992
 H        -0.415279         2.274782         0.253639
 H        -1.290864         1.417517        -1.002536
 H        -3.031631         1.593380         0.790964
