19
Iteration:  3798
 C        -3.965073        -0.380471         1.854037
 C        -2.480779        -0.208162         1.662763
 C        -1.692168        -1.367146         0.950678
 C        -0.185075        -1.123358         0.808123
 C         0.129141         0.162138         0.060225
 O         1.069025         0.324830        -0.691915
 C        -0.934299         1.382595         0.252945
 C        -2.008007         1.095393         1.263791
 O        -1.766995         0.672212         2.612914
 H        -4.300473        -1.386153         2.160231
 H        -4.264624         0.436278         2.595668
 H        -4.379871        -0.112885         0.831415
 H        -1.865168        -2.412561         1.267052
 H        -2.041052        -1.553286        -0.166751
 H         0.305125        -1.082363         1.775282
 H         0.247335        -1.955211         0.301350
 H        -0.419183         2.299582         0.466177
 H        -1.496345         1.559896        -0.758220
 H        -2.830121         1.805128         1.345803
