19
Iteration:  4187
 C        -3.892436        -0.325919         2.102427
 C        -2.527510        -0.162129         1.456045
 C        -1.797256        -1.399473         1.038092
 C        -0.336860        -1.209204         0.585419
 C         0.156953         0.173849         0.049436
 O         1.191096         0.432609        -0.504688
 C        -0.863708         1.300324         0.239092
 C        -1.983945         1.124335         1.212217
 O        -1.781098         0.626012         2.441710
 H        -4.053502        -1.376258         2.300283
 H        -3.884243         0.119211         3.141728
 H        -4.819681        -0.055979         1.498519
 H        -1.901304        -2.043084         1.991703
 H        -2.415785        -1.880166         0.291947
 H         0.209889        -1.172332         1.569456
 H        -0.120622        -2.000606        -0.115444
 H        -0.483664         2.324492         0.424667
 H        -1.295818         1.484940        -0.727495
 H        -2.700569         1.926263         1.212057
