19
Iteration:  4730charge 0 multiplicity 1
 C        -3.764597        -0.558670         1.346495
 C        -2.350506        -0.172159         1.764323
 C        -1.302751        -1.220556         1.851623
 C        -0.618481        -1.177872         0.493825
 C         0.018250         0.158580        -0.096913
 O         0.896608         0.031178        -0.951002
 C        -0.538076         1.397533         0.649374
 C        -1.933763         1.108848         1.116422
 O        -2.222638         1.064924         2.597674
 H        -3.945731        -0.490288         0.281434
 H        -3.970694        -1.653413         1.724103
 H        -4.487927         0.180710         1.778833
 H        -0.607011        -1.023319         2.652623
 H        -1.793617        -2.236876         1.963424
 H         0.239331        -1.942588         0.506449
 H        -1.237232        -1.750334        -0.187907
 H         0.185989         1.391027         1.534440
 H        -0.420949         2.251571         0.071531
 H        -2.738927         1.600807         0.599396
