19
Iteration:   914
 C        -4.035595        -0.305608         1.819137
 C        -2.575267        -0.093967         1.493690
 C        -1.794527        -1.327658         1.043369
 C        -0.314059        -1.033547         0.871758
 C         0.114506         0.114424         0.025249
 O         0.998690         0.046052        -0.810989
 C        -0.568225         1.480482         0.454954
 C        -1.904386         1.198769         1.193416
 O        -1.794136         0.537857         2.551127
 H        -4.208816        -1.148871         2.536650
 H        -4.490284         0.582446         2.165802
 H        -4.609735        -0.614354         0.882927
 H        -1.802112        -2.080292         1.850801
 H        -2.264964        -1.825076         0.164297
 H         0.145157        -0.754090         1.852750
 H         0.134745        -1.928495         0.588618
 H         0.022657         1.924599         1.149368
 H        -0.627034         2.269711        -0.367152
 H        -2.496298         2.107396         1.280810
