19
Iteration:  4527charge 0 multiplicity 1
 C        -3.895289        -0.454931         1.782212
 C        -2.390415        -0.131882         1.662573
 C        -1.359839        -1.260352         1.515705
 C        -0.704746        -1.251070         0.105520
 C         0.008843         0.074432         0.058502
 O         1.136531         0.214349        -0.303627
 C        -0.767393         1.324306         0.368783
 C        -2.072327         1.130704         0.994683
 O        -1.814381         0.903077         2.488557
 H        -3.986491        -1.551389         1.751763
 H        -4.445237        -0.079810         2.646717
 H        -4.585793        -0.052622         1.050037
 H        -0.531440        -1.016655         2.204176
 H        -1.703911        -2.241809         1.841470
 H         0.041529        -2.054502         0.061350
 H        -1.498831        -1.288559        -0.670357
 H        -0.206650         2.044261         0.971863
 H        -0.937573         1.775852        -0.690716
 H        -2.974263         1.699250         0.806660
