19
Iteration:  4356charge 0 multiplicity 1
 C        -3.729491        -0.368527         2.257264
 C        -2.356351        -0.159869         1.591865
 C        -1.873931        -1.406080         0.900801
 C        -0.522357        -1.289935         0.231741
 C         0.035214         0.148085         0.013606
 O         1.211332         0.349428         0.239857
 C        -1.048410         1.321739        -0.123014
 C        -2.008485         1.247755         1.081128
 O        -1.575062         0.768349         2.391375
 H        -3.637501        -0.234108         3.399245
 H        -4.541172         0.258880         1.973840
 H        -4.077552        -1.389193         2.210071
 H        -1.738227        -2.232927         1.696338
 H        -2.597420        -1.734729         0.161391
 H         0.235706        -1.734421         0.824488
 H        -0.577566        -1.740165        -0.815787
 H        -0.555502         2.249894        -0.305248
 H        -1.582257         1.064939        -1.048473
 H        -2.898631         1.981955         1.162934
