19
Iteration:  1463charge 0 multiplicity 1
 C        -3.976034        -0.370186         1.549145
 C        -2.487613         0.001456         1.664885
 C        -1.429288        -1.211190         1.620017
 C        -0.720009        -1.312169         0.293426
 C         0.092764        -0.065032         0.024933
 O         1.190415         0.074474        -0.522940
 C        -0.584641         1.234915         0.406744
 C        -1.955032         1.270251         1.118880
 O        -1.994169         0.933386         2.569923
 H        -4.329390        -0.955635         2.444708
 H        -4.598713         0.543295         1.559497
 H        -4.086411        -1.031118         0.638359
 H        -0.782684        -0.823513         2.398539
 H        -1.904744        -2.184711         1.926090
 H         0.044723        -2.116930         0.255258
 H        -1.448259        -1.425016        -0.545874
 H         0.244007         1.821258         0.846015
 H        -0.727093         1.696890        -0.548535
 H        -2.687170         2.056435         0.923900
