19
Iteration:  2082
 C        -3.876370        -0.136396         2.319831
 C        -2.531971        -0.106294         1.539287
 C        -2.074286        -1.348631         0.823287
 C        -0.538181        -1.181519         0.525908
 C         0.064705         0.174923         0.241870
 O         1.260593         0.400732         0.239372
 C        -0.987281         1.113877        -0.159776
 C        -1.897083         1.151764         0.977740
 O        -1.366515         0.542257         2.138178
 H        -3.622401        -0.309492         3.343141
 H        -4.338397         0.750396         2.322017
 H        -4.569907        -0.884007         1.963010
 H        -2.202703        -2.316077         1.349313
 H        -2.658835        -1.626985        -0.056898
 H         0.025205        -1.620544         1.344479
 H        -0.320718        -1.670598        -0.445235
 H        -0.573285         2.134184        -0.383117
 H        -1.350173         0.725925        -1.090826
 H        -2.439564         2.001769         1.189061
