19
Iteration:  4263
 C        -3.775965        -0.270217         2.272708
 C        -2.464744        -0.129766         1.563731
 C        -1.875644        -1.351103         0.756854
 C        -0.287020        -1.332865         0.520174
 C        -0.015726         0.162389         0.142497
 O         1.099841         0.514794         0.030175
 C        -1.107660         1.207573        -0.099647
 C        -1.936213         1.232339         1.126458
 O        -1.509621         0.534258         2.325284
 H        -3.678135        -1.097416         2.982264
 H        -3.964651         0.780207         2.804899
 H        -4.662057        -0.540879         1.573176
 H        -2.297614        -2.254322         1.261442
 H        -2.375031        -1.288840        -0.249306
 H         0.320653        -1.572761         1.481410
 H        -0.137171        -2.047688        -0.278182
 H        -0.661779         2.269459        -0.292412
 H        -1.738540         0.969358        -0.939785
 H        -2.531484         2.063804         1.367774
