19
Iteration:  3234charge 0 multiplicity 1
 C        -3.925773        -0.403334         1.334989
 C        -2.358473        -0.141190         1.544527
 C        -1.396064        -1.336951         1.506852
 C        -0.013957        -1.215567         0.780957
 C         0.137137         0.087158         0.118095
 O         0.365885         0.119175        -1.075396
 C        -0.381222         1.301331         0.932620
 C        -1.930578         1.239911         1.119010
 O        -2.228512         0.939567         2.497964
 H        -3.915164        -1.562748         1.479311
 H        -4.332469         0.200176         2.159873
 H        -4.360711         0.051359         0.398016
 H        -1.320919        -1.453534         2.603721
 H        -1.938310        -2.231285         1.116854
 H         0.763462        -1.519329         1.500638
 H         0.077653        -2.030260        -0.042650
 H         0.019599         1.490012         1.857152
 H         0.019665         2.090854         0.263831
 H        -2.671795         1.936872         0.619825
