19
Iteration:  1568charge 0 multiplicity 1
 C        -3.724065        -0.373149         1.134676
 C        -2.318450        -0.014348         1.538701
 C        -1.395221        -1.228932         1.908369
 C        -0.450677        -1.340280         0.677999
 C         0.033505        -0.014119         0.010995
 O         0.431560         0.052530        -1.140115
 C        -0.225679         1.166926         1.019871
 C        -1.729429         1.243691         1.153123
 O        -2.344406         1.097371         2.495038
 H        -4.100972        -0.884575         1.939879
 H        -4.385349         0.552283         0.806761
 H        -3.718814        -0.953501         0.277423
 H        -0.935722        -1.171121         2.921199
 H        -2.004757        -2.131442         1.961589
 H         0.430619        -1.976757         0.856605
 H        -0.909560        -1.806417        -0.233213
 H         0.147672         0.963966         2.105806
 H         0.292313         2.161964         0.652624
 H        -2.379282         1.861871         0.470414
