19
Iteration:  1347
 C        -3.671007        -0.172228         2.334067
 C        -2.455002        -0.122223         1.520551
 C        -1.846915        -1.399284         1.036793
 C        -0.663697        -1.207395        -0.002905
 C         0.074272         0.185303         0.072221
 O         1.205014         0.126174         0.604819
 C        -0.928231         1.264438        -0.165313
 C        -2.075147         1.149614         0.901356
 O        -1.554551         0.762494         2.228614
 H        -3.409149        -0.518711         3.406907
 H        -4.072225         0.804567         2.405420
 H        -4.420669        -0.934528         1.917312
 H        -1.431365        -1.925486         1.901955
 H        -2.534706        -2.046190         0.523126
 H         0.175034        -1.939319         0.300083
 H        -1.112828        -1.405654        -0.930877
 H        -0.530402         2.297754        -0.063643
 H        -1.444342         1.319753        -1.117003
 H        -2.676974         2.031180         0.763853
