19
Iteration:  2963charge 0 multiplicity 1
 C        -3.899570        -0.290739         1.984189
 C        -2.415428        -0.107767         1.624769
 C        -1.784795        -1.417909         1.179759
 C        -0.501163        -1.274411         0.219665
 C         0.038867         0.104318         0.125837
 O         1.213949         0.349390         0.116660
 C        -1.033180         1.239788        -0.100313
 C        -1.944079         1.208790         1.082467
 O        -1.562113         0.770651         2.473090
 H        -4.113363        -1.024413         2.769450
 H        -4.373096         0.654384         2.285859
 H        -4.224158        -0.617604         0.951084
 H        -1.478180        -2.103809         1.898568
 H        -2.541170        -1.899344         0.525246
 H         0.307967        -1.916634         0.496097
 H        -0.795810        -1.672662        -0.797771
 H        -0.439323         2.245336        -0.183863
 H        -1.450960         1.131763        -1.099672
 H        -2.685669         2.027722         1.130180
