19
Iteration:  1426charge 0 multiplicity 1
 C        -3.918888        -0.322895         1.792188
 C        -2.427690        -0.134003         1.706740
 C        -1.500083        -1.376525         1.501173
 C        -0.724231        -1.272526         0.092632
 C         0.067100         0.093359         0.027716
 O         1.277225        -0.029732        -0.123536
 C        -0.702659         1.365408         0.146321
 C        -2.028234         1.254485         1.085194
 O        -1.891504         1.010683         2.489224
 H        -4.181575        -1.083130         2.512687
 H        -4.565326         0.680336         2.011052
 H        -4.355162        -0.599757         0.841982
 H        -0.634497        -1.486493         2.248481
 H        -1.986815        -2.379308         1.642176
 H        -0.034156        -2.093659         0.088969
 H        -1.360868        -1.413546        -0.800512
 H        -0.100737         2.198034         0.225770
 H        -1.225450         1.404541        -0.847154
 H        -2.755430         2.074956         0.801024
