19
Iteration:  4721charge 0 multiplicity 1
 C        -3.780802        -0.550111         1.373263
 C        -2.363215        -0.067935         1.766503
 C        -1.217988        -1.226476         1.788576
 C        -0.563774        -1.292281         0.477437
 C         0.028352         0.147607        -0.093234
 O         0.904500         0.027649        -0.916870
 C        -0.562622         1.329659         0.622989
 C        -2.033344         1.177574         1.118150
 O        -2.202805         1.060296         2.619616
 H        -3.895344        -0.415406         0.300050
 H        -4.143044        -1.649432         1.428020
 H        -4.535488         0.065072         1.879254
 H        -0.546737        -1.215344         2.583984
 H        -1.794216        -2.123256         2.189725
 H         0.371728        -1.927390         0.486245
 H        -1.266374        -1.552264        -0.316230
 H        -0.096272         1.523337         1.667769
 H        -0.501038         2.234734         0.134600
 H        -2.768716         1.727262         0.532394
