19
Iteration:  1279
 C        -3.702559        -0.195381         2.320794
 C        -2.432183        -0.044129         1.507671
 C        -1.984027        -1.297527         0.789871
 C        -0.512160        -1.225885         0.387993
 C         0.035574         0.139312         0.097875
 O         1.164346         0.335695         0.439630
 C        -1.089866         1.150936        -0.293465
 C        -1.919968         1.218362         0.993043
 O        -1.462661         0.527974         2.317074
 H        -3.808285        -1.075395         3.049288
 H        -3.895636         0.719217         2.809128
 H        -4.660437        -0.267573         1.708064
 H        -2.091252        -2.170199         1.385000
 H        -2.654747        -1.382218        -0.057841
 H         0.094233        -1.608017         1.253775
 H        -0.360921        -1.769560        -0.559028
 H        -0.563678         2.164904        -0.618459
 H        -1.513672         0.752654        -1.226654
 H        -2.346066         2.150799         1.306645
