19
Iteration:   804charge 0 multiplicity 1
 C        -3.720649        -0.173075         2.330041
 C        -2.432636        -0.128093         1.481588
 C        -2.065892        -1.434565         0.851833
 C        -0.572513        -1.367786         0.441521
 C         0.024372         0.144135         0.197004
 O         1.220556         0.387405         0.331366
 C        -0.947689         1.315267        -0.152132
 C        -2.025263         1.212489         0.954158
 O        -1.428808         0.627542         2.162209
 H        -3.596971        -0.918320         3.119737
 H        -3.687990         0.740373         2.891984
 H        -4.606064        -0.447426         1.775661
 H        -2.202349        -2.301439         1.533783
 H        -2.761016        -1.621084        -0.026732
 H         0.216028        -1.751450         1.063390
 H        -0.512808        -1.867272        -0.469793
 H        -0.458236         2.191961        -0.134985
 H        -1.338219         1.096241        -1.133256
 H        -2.672798         2.104637         1.029300
