19
Iteration:  4666
 C        -3.950420        -0.594611         1.618176
 C        -2.483583        -0.142254         1.690008
 C        -1.346684        -1.201942         1.719870
 C        -0.555553        -1.204303         0.432724
 C         0.119985         0.108542        -0.062122
 O         1.051288         0.076889        -0.815294
 C        -0.486638         1.373838         0.500209
 C        -2.001361         1.205600         1.108759
 O        -2.170626         0.972493         2.507725
 H        -4.405638        -0.584830         0.655727
 H        -3.910136        -1.612400         2.128609
 H        -4.581770        -0.060602         2.346593
 H        -0.753087        -0.851234         2.516220
 H        -1.735951        -2.281785         1.825570
 H         0.240573        -2.013227         0.476026
 H        -1.338086        -1.359874        -0.285108
 H         0.070729         1.695959         1.460373
 H        -0.351345         2.194375        -0.125280
 H        -2.738985         1.833277         0.599699
