19
Iteration:  4904charge 0 multiplicity 1
 C        -3.912366        -0.557177         1.276678
 C        -2.427089        -0.168720         1.759676
 C        -1.318012        -1.247504         1.761882
 C        -0.376438        -1.263591         0.527715
 C         0.082559         0.071645        -0.014562
 O         0.579719         0.168411        -1.107169
 C        -0.388169         1.361881         0.764017
 C        -1.827662         1.179068         1.250894
 O        -2.193029         1.018959         2.609644
 H        -4.643515        -0.739452         2.026091
 H        -4.213760         0.144284         0.386338
 H        -3.815473        -1.523588         0.802518
 H        -0.748157        -0.895406         2.680332
 H        -1.745654        -2.291302         1.996243
 H         0.466631        -1.985172         0.607271
 H        -0.847105        -1.672418        -0.385068
 H         0.194670         1.601179         1.750842
 H        -0.239214         2.278041         0.220218
 H        -2.470953         1.870199         0.731519
