19
Iteration:  1345charge 0 multiplicity 1
 C        -3.667055        -0.153773         2.324315
 C        -2.440459        -0.125960         1.526567
 C        -1.854928        -1.409930         1.029463
 C        -0.657789        -1.216830        -0.001328
 C         0.066875         0.185959         0.086137
 O         1.199233         0.141882         0.611725
 C        -0.951935         1.254452        -0.154103
 C        -2.070842         1.149166         0.895058
 O        -1.539684         0.757300         2.228344
 H        -3.398648        -0.473996         3.386586
 H        -4.028809         0.773785         2.429282
 H        -4.322286        -0.959488         1.861250
 H        -1.487232        -1.920405         1.867445
 H        -2.616165        -1.959756         0.510965
 H         0.146116        -1.992154         0.279839
 H        -1.102966        -1.430805        -0.973501
 H        -0.502157         2.372061        -0.079503
 H        -1.475730         1.283768        -1.134786
 H        -2.689984         2.003886         0.742935
