19
Iteration:  3610
 C        -3.732047        -0.315528         2.393665
 C        -2.381386        -0.185647         1.612698
 C        -1.655644        -1.437720         0.991630
 C        -0.554521        -1.222106        -0.153126
 C         0.007853         0.191943         0.055721
 O         1.090981         0.440791         0.613826
 C        -1.057592         1.237777        -0.147448
 C        -2.054985         1.088472         0.947807
 O        -1.538470         0.744274         2.262113
 H        -3.614150        -0.204433         3.529590
 H        -4.299974         0.547754         2.028919
 H        -4.433592        -1.229405         2.235531
 H        -1.047172        -2.023321         1.693874
 H        -2.538368        -2.161546         0.760148
 H         0.275353        -1.936070        -0.249231
 H        -1.012666        -1.239685        -1.147937
 H        -0.618293         2.267224        -0.118066
 H        -1.470871         1.112612        -1.213340
 H        -2.780411         1.909211         0.863157
