19
Iteration:  4064charge 0 multiplicity 1
 C        -3.817523        -0.370132         1.513492
 C        -2.374201        -0.254740         1.480485
 C        -1.557267        -1.499837         0.997541
 C        -0.084447        -1.004752         1.033074
 C        -0.030142         0.255608         0.063763
 O         0.438475         0.034103        -0.984635
 C        -0.579836         1.611834         0.663123
 C        -1.906189         1.175646         1.324768
 O        -1.865525         0.647578         2.654915
 H        -4.193776        -0.596472         2.605606
 H        -4.339905         0.507770         1.168066
 H        -4.239062        -1.077589         0.743171
 H        -1.861871        -2.408442         1.587129
 H        -1.993314        -1.616054        -0.053142
 H         0.294158        -0.688044         2.017413
 H         0.507925        -1.852707         0.655535
 H         0.228571         1.953799         1.372860
 H        -0.607398         2.318908        -0.090824
 H        -2.640613         1.861025         1.126524
