19
Iteration:  2070
 C        -3.759683        -0.139047         2.281520
 C        -2.463146        -0.132441         1.569277
 C        -2.115907        -1.333523         0.788292
 C        -0.633847        -1.188130         0.555630
 C         0.069584         0.176266         0.335033
 O         1.259104         0.403998         0.294726
 C        -0.990477         1.155135        -0.257304
 C        -2.058886         1.105424         0.944260
 O        -1.257977         0.552109         2.161347
 H        -3.618778        -0.430245         3.290836
 H        -4.219749         0.755463         2.207603
 H        -4.369002        -0.901831         1.875919
 H        -2.337512        -2.238032         1.369045
 H        -2.673525        -1.116892        -0.117056
 H        -0.033813        -1.779731         1.233189
 H        -0.398202        -1.753547        -0.391118
 H        -0.623390         2.121389        -0.537325
 H        -1.543873         0.678274        -1.089075
 H        -2.598833         1.927945         1.059476
