19
Iteration:   570
 C        -3.969330        -0.256210         1.620387
 C        -2.461856        -0.110071         1.659865
 C        -1.450545        -1.305380         1.589528
 C        -0.557072        -1.358743         0.308973
 C         0.108298         0.041195         0.010209
 O         1.105576         0.059220        -0.707487
 C        -0.523480         1.332193         0.568092
 C        -1.931492         1.193709         1.078259
 O        -2.142023         0.953677         2.601697
 H        -4.572576        -0.377831         2.560519
 H        -4.242236         0.739557         1.215779
 H        -4.295339        -1.168197         0.967135
 H        -0.765399        -1.198037         2.469401
 H        -2.019839        -2.276333         1.856383
 H         0.242326        -2.114041         0.264703
 H        -1.166976        -1.509202        -0.543650
 H         0.093315         1.697177         1.334208
 H        -0.369562         2.013476        -0.293945
 H        -2.755294         1.829703         0.618248
