19
Iteration:  3594charge 0 multiplicity 1
 C        -3.682983        -0.387055         2.338512
 C        -2.392691        -0.245426         1.558506
 C        -1.640796        -1.463286         1.073281
 C        -0.634414        -1.164363        -0.072669
 C        -0.013598         0.187191         0.029833
 O         1.124655         0.379707         0.529968
 C        -0.940055         1.348994        -0.204050
 C        -2.033793         1.116738         0.987787
 O        -1.640218         0.810334         2.291750
 H        -3.435718        -0.511039         3.349961
 H        -4.484262         0.416149         2.392229
 H        -4.204521        -1.228075         2.026234
 H        -1.273716        -2.102563         1.916030
 H        -2.325859        -2.116732         0.574908
 H         0.140643        -1.908015         0.136094
 H        -1.116014        -1.438582        -1.036070
 H        -0.403315         2.358186        -0.271261
 H        -1.616118         1.177708        -0.999813
 H        -2.813036         1.892075         1.032820
