19
Iteration:  1301
 C        -3.749232        -0.173375         2.281758
 C        -2.406924        -0.025187         1.544786
 C        -2.026866        -1.371296         0.869769
 C        -0.567196        -1.364153         0.158941
 C         0.016498         0.074859         0.153366
 O         1.081332         0.432178         0.584192
 C        -1.032913         1.136693        -0.214865
 C        -1.902676         1.196560         1.017464
 O        -1.298497         0.681240         2.195393
 H        -3.618374        -0.902590         3.155025
 H        -4.272687         0.664192         2.639552
 H        -4.462640        -0.771909         1.630084
 H        -1.957211        -2.153390         1.570993
 H        -2.740908        -1.624168         0.107270
 H         0.178782        -1.952788         0.764425
 H        -0.638148        -1.629064        -0.896890
 H        -0.627305         2.207386        -0.480775
 H        -1.683960         0.879234        -1.079825
 H        -2.502074         2.069598         1.188238
