19
Iteration:  4297
 C        -3.756797        -0.283575         2.421657
 C        -2.457968        -0.216762         1.602423
 C        -2.075894        -1.342570         0.738173
 C        -0.526313        -1.158208         0.406423
 C         0.104878         0.303447         0.168161
 O         1.301689         0.482581         0.152576
 C        -1.034290         1.239945        -0.144736
 C        -2.016159         1.026141         1.021890
 O        -1.454354         0.533497         2.223699
 H        -3.457468        -0.408816         3.460746
 H        -4.364846         0.756371         2.409846
 H        -4.455580        -1.134696         2.085996
 H        -2.188270        -2.323013         1.343512
 H        -2.862841        -1.441970        -0.015807
 H         0.104577        -1.379184         1.350537
 H        -0.090566        -1.945904        -0.254293
 H        -0.904771         2.341173        -0.193664
 H        -1.371426         0.815229        -1.093298
 H        -2.646201         1.928550         1.106946
