19
Iteration:  2420
 C        -3.965996        -0.407998         1.419507
 C        -2.481601        -0.073213         1.513012
 C        -1.517163        -1.325613         1.535648
 C        -0.218591        -1.294195         0.752410
 C         0.127896         0.113583         0.154829
 O         0.548256         0.086871        -0.982081
 C        -0.324966         1.401764         0.723415
 C        -1.846964         1.186244         1.119949
 O        -2.099079         0.907434         2.530384
 H        -3.982859        -1.493923         1.503580
 H        -4.537775         0.110135         2.163633
 H        -4.313775        -0.197655         0.395514
 H        -1.300766        -1.402698         2.583265
 H        -2.122474        -2.138133         1.245175
 H         0.636396        -1.737470         1.241825
 H        -0.324689        -1.863572        -0.171383
 H         0.257418         1.738034         1.694182
 H        -0.188417         2.180236        -0.138968
 H        -2.460019         1.975255         0.853354
