19
Iteration:  4910charge 0 multiplicity 1
 C        -3.902661        -0.566034         1.274012
 C        -2.400145        -0.146090         1.684765
 C        -1.310050        -1.255664         1.791076
 C        -0.404201        -1.297682         0.495465
 C         0.056684         0.101689         0.020464
 O         0.579228         0.174767        -1.078878
 C        -0.371614         1.378500         0.777259
 C        -1.866400         1.165047         1.236160
 O        -2.182804         1.008178         2.610621
 H        -4.610828        -0.448435         2.154207
 H        -4.201616         0.131869         0.551127
 H        -3.827047        -1.577921         0.811804
 H        -0.671815        -1.020374         2.658220
 H        -1.613001        -2.229436         2.086203
 H         0.473341        -1.918271         0.669134
 H        -0.945291        -1.661151        -0.396331
 H         0.286048         1.453729         1.606021
 H        -0.150027         2.348247         0.180616
 H        -2.584906         1.728737         0.591942
