19
Iteration:   500
 C        -3.722883        -0.465998         1.232561
 C        -2.333848        -0.077667         1.622906
 C        -1.366260        -1.175702         1.876728
 C        -0.673550        -1.321076         0.461728
 C        -0.033217        -0.013362         0.012002
 O         0.680458         0.099321        -0.977825
 C        -0.242455         1.156694         0.948743
 C        -1.760924         1.196857         1.147211
 O        -2.332013         1.161155         2.483156
 H        -4.110640        -1.311624         1.850130
 H        -4.328674         0.461403         1.338951
 H        -3.606747        -0.950092         0.187860
 H        -0.699373        -0.906135         2.677817
 H        -1.842076        -2.044568         2.215237
 H         0.099169        -2.095073         0.320594
 H        -1.445561        -1.493607        -0.347559
 H         0.385864         1.021128         1.850285
 H         0.065223         2.089762         0.494881
 H        -2.378269         1.758627         0.473777
