19
Iteration:   901charge 0 multiplicity 1
 C        -4.067873        -0.296706         1.810716
 C        -2.519134        -0.088240         1.562257
 C        -1.856995        -1.374983         0.973026
 C        -0.299844        -1.141995         0.842778
 C         0.138187         0.126974         0.021619
 O         1.113436         0.073248        -0.740441
 C        -0.700872         1.415361         0.379849
 C        -1.992329         1.309191         1.291233
 O        -1.694300         0.590527         2.545186
 H        -4.214268        -1.128959         2.560639
 H        -4.524214         0.582193         2.336591
 H        -4.518075        -0.577679         0.822575
 H        -2.076728        -2.161716         1.655805
 H        -2.294753        -1.629106         0.003121
 H        -0.065949        -0.953714         1.894165
 H         0.356790        -1.977189         0.473763
 H         0.021110         2.038193         0.840105
 H        -0.987535         1.889277        -0.666736
 H        -2.662071         2.176424         1.398755
