19
Iteration:   328
 C        -3.956076        -0.304696         1.276288
 C        -2.449182        -0.040195         1.473437
 C        -1.695529        -1.385131         1.276377
 C        -0.130111        -1.129950         1.047516
 C         0.049653        -0.009580         0.180952
 O         0.366765        -0.167226        -1.020525
 C        -0.249612         1.449453         0.741879
 C        -1.776034         1.304093         1.230243
 O        -1.946371         0.933832         2.590112
 H        -4.172572        -1.190628         1.936311
 H        -4.479380         0.516456         1.510663
 H        -4.144810        -0.653759         0.204695
 H        -1.807087        -2.222752         2.082337
 H        -2.083618        -1.891019         0.260350
 H         0.503708        -1.100213         1.972056
 H         0.228178        -1.962235         0.462601
 H         0.284693         1.674612         1.697958
 H        -0.000019         2.164644        -0.057814
 H        -2.453374         2.072157         0.868787
