19
Iteration:  4878
 C        -3.773657        -0.539145         1.246997
 C        -2.371150        -0.099212         1.623224
 C        -1.398963        -1.190370         1.794527
 C        -0.366039        -1.251104         0.590120
 C         0.010827         0.060483        -0.070061
 O         0.608472         0.152419        -1.142106
 C        -0.399622         1.293249         0.716554
 C        -1.875865         1.235324         1.283344
 O        -2.240067         0.951411         2.722704
 H        -4.117428        -1.213570         2.094556
 H        -4.407680         0.274803         1.035226
 H        -3.819975        -1.205848         0.345019
 H        -0.920140        -1.002790         2.830139
 H        -1.966994        -2.095726         1.789206
 H         0.552225        -1.670520         0.944498
 H        -0.561905        -1.967118        -0.229516
 H         0.333147         1.260212         1.515634
 H        -0.144545         2.362829         0.260200
 H        -2.632122         1.777873         0.678531
