19
Iteration:  4345charge 0 multiplicity 1
 C        -3.668321        -0.358441         2.317763
 C        -2.461248        -0.053351         1.531743
 C        -1.840040        -1.399133         0.858406
 C        -0.448168        -1.281492         0.197301
 C        -0.013337         0.145622         0.058900
 O         1.180880         0.327677         0.249538
 C        -1.037773         1.266515        -0.051831
 C        -2.108063         1.244560         1.077455
 O        -1.534214         0.724381         2.322146
 H        -3.437022        -0.151121         3.434161
 H        -4.468376         0.248545         1.971414
 H        -3.919389        -1.376204         2.089341
 H        -1.897144        -2.266922         1.648961
 H        -2.636577        -1.672143         0.170748
 H         0.292647        -1.564120         0.897367
 H        -0.260188        -2.133819        -0.525496
 H        -0.586807         2.225431        -0.099033
 H        -1.678328         1.118393        -0.936978
 H        -2.672444         2.257875         1.120457
