19
Iteration:  3109charge 0 multiplicity 1
 C        -4.081920        -0.368452         1.578013
 C        -2.489410        -0.109081         1.537449
 C        -1.637105        -1.291397         0.987270
 C        -0.110022        -0.963846         1.139317
 C         0.062179         0.079610         0.101037
 O         0.749829        -0.043432        -0.917116
 C        -0.628906         1.460328         0.481643
 C        -1.894038         1.246484         1.275195
 O        -1.821548         0.562662         2.543352
 H        -4.328636        -0.657731         2.627141
 H        -4.427098         0.688491         1.332056
 H        -4.351063        -1.107520         0.833087
 H        -1.783078        -2.244394         1.512731
 H        -1.861103        -1.408287        -0.029476
 H         0.040438        -0.589567         2.175519
 H         0.635557        -1.711798         0.916433
 H         0.075550         2.070752         1.145728
 H        -0.854451         2.139032        -0.320590
 H        -2.512328         2.133376         1.356685
