19
Iteration:   630charge 0 multiplicity 1
 C        -3.930799        -0.407093         1.915773
 C        -2.429957        -0.044293         1.587881
 C        -1.613733        -1.341622         1.372417
 C        -0.611105        -1.224335         0.232846
 C         0.043680         0.065270         0.068667
 O         1.238339        -0.028159        -0.184299
 C        -0.721632         1.352032         0.180145
 C        -1.994302         1.318856         1.074307
 O        -1.842182         0.927423         2.450388
 H        -3.942108        -1.284110         2.552107
 H        -4.473964         0.439674         2.450939
 H        -4.526563        -0.466557         1.044589
 H        -1.139430        -1.592916         2.343235
 H        -2.303621        -2.153937         1.058019
 H         0.218404        -1.947624         0.368514
 H        -1.110583        -1.492479        -0.749051
 H         0.078021         2.195370         0.388817
 H        -1.024198         1.601248        -0.871376
 H        -2.865594         1.971143         0.765506
