19
Iteration:  3365
 C        -3.749492        -0.688796         1.419792
 C        -2.402216        -0.149148         1.732858
 C        -1.285825        -1.221771         1.642592
 C        -0.638752        -1.194098         0.323648
 C         0.128591         0.100577         0.019866
 O         0.835893         0.169840        -0.937929
 C        -0.425512         1.299362         0.879117
 C        -1.905217         1.196788         1.151543
 O        -2.318064         1.073920         2.554867
 H        -4.355103        -0.662856         2.348067
 H        -4.363127        -0.166931         0.683883
 H        -3.711387        -1.758258         1.202554
 H        -0.590652        -0.920386         2.450426
 H        -1.744374        -2.164236         1.891896
 H         0.048504        -1.991055         0.013420
 H        -1.437831        -1.072975        -0.506101
 H         0.213554         1.103150         1.813835
 H        -0.173003         2.317759         0.499193
 H        -2.705148         1.596548         0.471649
