19
Iteration:   934
 C        -3.981591        -0.262965         1.718172
 C        -2.520005        -0.150704         1.420588
 C        -1.692793        -1.389814         1.138014
 C        -0.219450        -1.047763         0.950796
 C         0.091490         0.146756         0.056064
 O         0.775897         0.068763        -0.963811
 C        -0.446834         1.383002         0.668983
 C        -1.862874         1.190028         1.207504
 O        -1.956263         0.643235         2.509791
 H        -4.038568        -1.028764         2.552537
 H        -4.399677         0.687316         1.998833
 H        -4.685984        -0.656647         0.929391
 H        -1.925907        -2.122981         1.851940
 H        -2.174709        -1.724288         0.235047
 H         0.209154        -0.898622         1.955060
 H         0.357799        -1.772827         0.384891
 H         0.277274         1.679985         1.396745
 H        -0.515232         2.256865        -0.132762
 H        -2.499427         2.038178         0.934240
