19
Iteration:   797
 C        -3.687818        -0.182014         2.357425
 C        -2.458143        -0.113446         1.431711
 C        -2.054564        -1.428891         0.849256
 C        -0.552193        -1.351342         0.344066
 C         0.026226         0.083409         0.234218
 O         1.200564         0.373191         0.386583
 C        -0.980311         1.256600        -0.105043
 C        -2.076665         1.208039         0.966435
 O        -1.378464         0.716217         2.136092
 H        -3.468191        -0.951918         3.112367
 H        -3.727326         0.813386         2.764958
 H        -4.649614        -0.429920         1.831467
 H        -2.188812        -2.294472         1.560247
 H        -2.693522        -1.598155        -0.009941
 H         0.095516        -1.939826         1.090238
 H        -0.348666        -1.859057        -0.644908
 H        -0.398813         2.299193        -0.224904
 H        -1.421775         1.138149        -1.107755
 H        -2.786255         2.011062         1.124550
