19
Iteration:  1572charge 0 multiplicity 1
 C        -3.682092        -0.357754         1.070924
 C        -2.280609        -0.032268         1.531143
 C        -1.432178        -1.252480         1.916269
 C        -0.476021        -1.336013         0.708797
 C         0.034473         0.000097         0.044022
 O         0.384301         0.030213        -1.139425
 C        -0.241907         1.245117         1.008872
 C        -1.726131         1.224249         1.187057
 O        -2.292850         1.112381         2.498863
 H        -4.183871        -0.942654         1.948626
 H        -4.354242         0.449982         0.776500
 H        -3.685620        -1.084547         0.138456
 H        -0.913602        -1.203455         2.907738
 H        -2.105912        -2.220206         1.873988
 H         0.432204        -1.899024         0.798107
 H        -0.795737        -1.865481        -0.199970
 H         0.109823         0.912885         1.925480
 H         0.135576         2.139171         0.696979
 H        -2.336829         1.835980         0.543263
