19
Iteration:  1364
 C        -3.865077        -0.284065         2.400286
 C        -2.533464        -0.131709         1.496010
 C        -1.695896        -1.382656         1.105914
 C        -0.661076        -1.206581        -0.008909
 C         0.042209         0.064472         0.137882
 O         1.219226         0.121382         0.465829
 C        -0.819630         1.347871        -0.123002
 C        -1.989670         1.213774         0.887790
 O        -1.629893         0.825033         2.190426
 H        -3.500606        -0.695328         3.319771
 H        -4.165961         0.770945         2.741021
 H        -4.591853        -0.933713         1.941550
 H        -1.158907        -1.635030         2.039095
 H        -2.481618        -2.148774         0.864093
 H        -0.034633        -2.064300        -0.005939
 H        -1.091944        -1.196982        -1.086438
 H        -0.124227         2.265257         0.022124
 H        -1.086165         1.305165        -1.204947
 H        -2.765238         2.018430         0.915517
