19
Iteration:   860
 C        -3.889948        -0.155255         1.986356
 C        -2.478755        -0.101025         1.631428
 C        -1.923602        -1.289554         0.779774
 C        -0.343639        -1.271888         0.695431
 C         0.131920         0.076589         0.204175
 O         1.215168         0.301410        -0.317242
 C        -1.006831         1.183134         0.008712
 C        -1.932752         1.265276         1.211267
 O        -1.610279         0.580409         2.539334
 H        -4.092133        -1.039979         2.602067
 H        -4.240796         0.684700         2.448110
 H        -4.573167        -0.191671         1.105454
 H        -2.323651        -2.260055         1.185158
 H        -2.437395        -1.145932        -0.210826
 H         0.231278        -1.410402         1.638583
 H        -0.028725        -1.964189         0.021870
 H        -0.547938         2.070026        -0.248206
 H        -1.575864         0.822318        -0.836304
 H        -2.601013         2.119402         1.329623
