19
Iteration:  4189charge 0 multiplicity 1
 C        -3.880714        -0.325014         2.107463
 C        -2.554212        -0.159247         1.469895
 C        -1.788859        -1.400720         1.028409
 C        -0.334266        -1.193586         0.582490
 C         0.145901         0.170922         0.048617
 O         1.206856         0.425186        -0.488366
 C        -0.870174         1.304653         0.208049
 C        -1.981464         1.120756         1.209650
 O        -1.787662         0.612727         2.452404
 H        -4.031017        -1.351241         2.270276
 H        -3.847703         0.133014         3.153311
 H        -4.765088        -0.043422         1.505661
 H        -1.907644        -2.042171         2.019016
 H        -2.437597        -1.857972         0.308052
 H         0.249749        -1.186513         1.543597
 H        -0.087883        -1.988172        -0.154116
 H        -0.460159         2.270036         0.391995
 H        -1.380923         1.527228        -0.778947
 H        -2.716276         2.003934         1.235255
