19
Iteration:  3648
 C        -3.664135        -0.431176         2.317626
 C        -2.331824        -0.221982         1.535961
 C        -1.786487        -1.506446         1.044325
 C        -0.611281        -1.173796         0.033054
 C        -0.086464         0.260230         0.169794
 O         1.073445         0.425236         0.548407
 C        -0.996757         1.350436        -0.190118
 C        -2.048414         1.177486         0.922246
 O        -1.444869         0.681623         2.169506
 H        -3.497202        -0.316593         3.363407
 H        -4.404027         0.346419         2.010250
 H        -4.095819        -1.379068         2.115333
 H        -1.398537        -1.916691         1.994312
 H        -2.594596        -2.051099         0.704318
 H         0.282972        -1.798365         0.202195
 H        -1.018165        -1.195799        -1.044600
 H        -0.510502         2.298624        -0.284903
 H        -1.647477         1.156866        -0.975930
 H        -2.707839         1.976879         1.234440
