19
Iteration:  3981
 C        -3.797856        -0.421608         1.228103
 C        -2.293703        -0.199623         1.674688
 C        -1.522193        -1.476847         1.439252
 C        -0.036432        -1.130550         0.893875
 C         0.007616         0.199098         0.051635
 O         0.271501         0.220290        -1.181236
 C        -0.430447         1.469871         0.802353
 C        -1.791317         1.135455         1.268159
 O        -2.096467         0.805612         2.656574
 H        -4.181877        -1.394044         1.276758
 H        -4.452060         0.147250         1.858874
 H        -4.044027        -0.218035         0.173634
 H        -1.453147        -2.181348         2.254789
 H        -2.058301        -2.010472         0.707116
 H         0.666499        -0.989639         1.765906
 H         0.209748        -2.078250         0.446035
 H         0.193974         1.783250         1.666829
 H        -0.505472         2.255694        -0.028853
 H        -2.686920         1.649480         0.747449
