19
Iteration:  4011charge 0 multiplicity 1
 C        -3.930820        -0.471849         1.390813
 C        -2.400970        -0.133967         1.453518
 C        -1.410375        -1.314875         1.276930
 C         0.068245        -1.022011         0.925556
 C         0.011606         0.152917         0.006281
 O         0.291209         0.077350        -1.167692
 C        -0.431068         1.387631         0.909231
 C        -1.839840         1.265689         1.307373
 O        -2.092897         0.708702         2.602207
 H        -4.162013        -1.429253         1.980633
 H        -4.526566         0.231943         1.896874
 H        -4.479933        -0.545591         0.420373
 H        -1.461641        -1.950389         2.282007
 H        -1.894194        -2.000836         0.563223
 H         0.724752        -0.768174         1.808335
 H         0.475380        -1.912926         0.418657
 H         0.205320         1.434870         1.841890
 H        -0.225423         2.241681         0.333496
 H        -2.515857         2.041048         1.023986
