19
Iteration:  1733
 C        -3.871672        -0.292779         1.205229
 C        -2.477507        -0.050645         1.584407
 C        -1.420594        -1.205605         1.802841
 C        -0.323814        -1.331277         0.693217
 C         0.098852        -0.012861        -0.004823
 O         0.587550         0.012221        -1.167495
 C        -0.246929         1.198585         0.906861
 C        -1.818292         1.238762         1.196936
 O        -2.328309         1.036051         2.556353
 H        -4.462478        -0.452072         2.076794
 H        -4.298759         0.551583         0.590633
 H        -3.815636        -1.149007         0.524463
 H        -0.987014        -0.981368         2.755098
 H        -1.756330        -2.177914         1.949617
 H         0.633835        -1.735666         1.125609
 H        -0.613796        -2.056187        -0.133867
 H         0.208542         0.908788         1.936152
 H         0.172454         2.144408         0.509553
 H        -2.397968         1.932968         0.590195
