19
Iteration:  4997charge 0 multiplicity 1
 C        -3.789699        -0.600882         1.506524
 C        -2.386779        -0.092639         1.624411
 C        -1.273801        -1.214791         1.795266
 C        -0.631271        -1.199711         0.383262
 C         0.033642         0.066843        -0.055264
 O         0.880071         0.136859        -0.937551
 C        -0.453070         1.342319         0.736510
 C        -1.902671         1.232386         1.053129
 O        -2.258783         0.964954         2.599512
 H        -3.985663        -1.180660         2.483825
 H        -4.501228         0.176694         1.382948
 H        -4.097334        -1.376306         0.738635
 H        -0.552156        -1.110973         2.606608
 H        -1.666895        -2.216205         1.847835
 H         0.098781        -2.010948         0.246608
 H        -1.420808        -1.531976        -0.324879
 H        -0.021846         1.296944         1.767033
 H        -0.078834         2.333368         0.206507
 H        -2.742596         1.882666         0.695444
