19
Iteration:  3795
 C        -3.959082        -0.356548         1.869687
 C        -2.453783        -0.225882         1.649908
 C        -1.701816        -1.380938         0.964771
 C        -0.197878        -1.135041         0.778901
 C         0.136824         0.201577         0.076946
 O         1.064199         0.323625        -0.672703
 C        -0.938228         1.383041         0.238970
 C        -2.004268         1.104933         1.245758
 O        -1.767311         0.664983         2.617298
 H        -4.269809        -1.407446         2.101678
 H        -4.266383         0.347740         2.582002
 H        -4.408942        -0.130609         0.835479
 H        -1.953751        -2.357323         1.366188
 H        -2.086593        -1.599430        -0.097329
 H         0.264658        -1.137258         1.800946
 H         0.282244        -1.938352         0.210750
 H        -0.395937         2.338145         0.365781
 H        -1.418171         1.491689        -0.723677
 H        -2.924932         1.765858         1.330792
