19
Iteration:    73charge 0 multiplicity 1
 C        -3.631193        -0.259218         2.261458
 C        -2.429771        -0.062638         1.426247
 C        -1.752195        -1.337852         1.123023
 C        -0.807912        -1.398496        -0.058938
 C        -0.112650        -0.054834         0.203169
 O         1.024687         0.028386         0.765506
 C        -0.809136         1.340974        -0.186767
 C        -1.957421         1.306517         0.855872
 O        -1.414010         1.015195         2.132067
 H        -3.860762        -1.266251         2.532876
 H        -3.492316         0.525045         3.170484
 H        -4.651052         0.002594         1.796966
 H        -1.152302        -1.772074         1.975079
 H        -2.633939        -2.048973         0.958688
 H        -0.237765        -2.312956         0.049213
 H        -1.465967        -1.466432        -1.029109
 H        -0.127819         2.180578        -0.153601
 H        -1.236364         1.187449        -1.261618
 H        -2.747699         2.146911         0.916420
