19
Iteration:   628charge 0 multiplicity 1
 C        -3.932694        -0.396224         1.900795
 C        -2.429662        -0.063846         1.593140
 C        -1.611563        -1.341882         1.392645
 C        -0.618678        -1.236163         0.250644
 C         0.050735         0.064919         0.056249
 O         1.236747        -0.021477        -0.205129
 C        -0.717329         1.365278         0.184827
 C        -1.971492         1.330224         1.068822
 O        -1.859580         0.916062         2.453286
 H        -3.911969        -1.253460         2.557254
 H        -4.563446         0.452805         2.521891
 H        -4.461320        -0.515979         0.991923
 H        -1.082829        -1.626608         2.343107
 H        -2.385082        -2.189067         1.087829
 H         0.192905        -1.904618         0.372554
 H        -1.090668        -1.463763        -0.700221
 H         0.066088         2.150305         0.427865
 H        -0.947971         1.655388        -0.912169
 H        -2.927606         1.997488         0.766156
