19
Iteration:  2154
 C        -4.057962        -0.348393         1.953169
 C        -2.485877        -0.080851         1.631472
 C        -1.877893        -1.318357         1.164706
 C        -0.468629        -1.295676         0.551299
 C         0.176748         0.154173         0.201573
 O         1.303153         0.162599        -0.314807
 C        -0.831738         1.322251         0.139148
 C        -2.057295         1.201515         1.059715
 O        -1.567136         0.799593         2.371618
 H        -4.102889        -1.374855         2.425966
 H        -4.562637         0.438063         2.706569
 H        -4.481140        -0.288384         0.929784
 H        -2.051963        -2.103621         1.880128
 H        -2.522099        -1.745357         0.383015
 H         0.287210        -1.849332         1.093984
 H        -0.605352        -1.659238        -0.481051
 H        -0.415340         2.230585         0.364378
 H        -1.184759         1.482753        -0.882422
 H        -2.736778         2.143102         1.046908
