19
Iteration:  2323
 C        -3.820992        -0.259800         1.459097
 C        -2.398249        -0.090808         1.430136
 C        -1.628781        -1.357103         1.072102
 C        -0.145640        -1.083691         1.113860
 C         0.008447         0.068214         0.168159
 O         0.462192        -0.054761        -0.931783
 C        -0.513958         1.449868         0.652238
 C        -1.861171         1.256599         1.234573
 O        -1.900348         0.685851         2.556453
 H        -4.038654        -0.749140         2.423026
 H        -4.209800         0.751348         1.348511
 H        -4.104043        -1.020280         0.714916
 H        -1.961390        -2.111316         1.825276
 H        -1.847754        -1.628353         0.039665
 H         0.354506        -0.846801         2.111873
 H         0.259679        -1.970459         0.603940
 H         0.086642         1.890024         1.314943
 H        -0.489560         2.069613        -0.276712
 H        -2.590651         1.990631         1.108379
