19
Iteration:  2036
 C        -3.695061        -0.194649         2.402125
 C        -2.510372        -0.052325         1.445842
 C        -1.930418        -1.322193         0.732507
 C        -0.442231        -1.383764         0.386058
 C        -0.019386         0.011746         0.078916
 O         1.073637         0.375738         0.484285
 C        -0.989197         1.082363        -0.203170
 C        -1.927668         1.265919         1.004648
 O        -1.438141         0.794327         2.221204
 H        -3.428027        -0.780553         3.237568
 H        -3.986674         0.750391         2.851638
 H        -4.559234        -0.581699         1.964825
 H        -2.336803        -2.235142         1.169510
 H        -2.528463        -1.525781        -0.183874
 H         0.121417        -1.721602         1.251834
 H        -0.420306        -2.090742        -0.516073
 H        -0.391962         1.851074        -0.495384
 H        -1.722393         0.969595        -1.081275
 H        -2.580037         2.050215         1.149995
