19
Iteration:  3022charge 0 multiplicity 1
 C        -3.918610        -0.249538         1.944151
 C        -2.514300        -0.166456         1.626947
 C        -1.687657        -1.427652         1.256040
 C        -0.403020        -1.195714         0.455336
 C         0.119542         0.097087         0.035731
 O         1.246591         0.259020        -0.406139
 C        -0.758868         1.354260         0.265087
 C        -2.028040         1.143618         1.040866
 O        -1.905852         0.754535         2.468054
 H        -4.349483        -1.204223         2.254987
 H        -4.317351         0.616249         2.550904
 H        -4.556864        -0.068770         1.091434
 H        -1.540927        -2.081399         2.170851
 H        -2.377480        -1.990078         0.661117
 H         0.425344        -1.620088         1.115437
 H        -0.376282        -1.844655        -0.426291
 H        -0.172262         2.103958         0.727171
 H        -0.937268         1.598151        -0.746306
 H        -2.804553         1.891319         0.903591
