19
Iteration:   601
 C        -3.990468        -0.330972         1.743083
 C        -2.493043        -0.127878         1.589113
 C        -1.620857        -1.309962         1.569239
 C        -0.660785        -1.299388         0.334583
 C         0.138136         0.054948         0.037659
 O         1.235157         0.138099        -0.496687
 C        -0.640041         1.292095         0.407310
 C        -1.965840         1.170869         1.037945
 O        -1.859324         0.951238         2.497103
 H        -4.273089        -0.847939         2.706361
 H        -4.439627         0.600251         1.863127
 H        -4.356547        -0.767282         0.692070
 H        -1.075920        -1.338462         2.519044
 H        -2.220694        -2.187574         1.496283
 H         0.100868        -2.139336         0.325892
 H        -1.305764        -1.390485        -0.558948
 H         0.000172         1.955927         0.933660
 H        -0.729453         1.782536        -0.541231
 H        -2.764278         1.791725         0.713487
