19
Iteration:    64
 C        -3.713390        -0.259789         2.270750
 C        -2.429166        -0.044447         1.417440
 C        -1.756170        -1.394870         1.157427
 C        -0.795252        -1.346957        -0.038968
 C         0.026300         0.014796         0.132895
 O         1.050508        -0.068698         0.721369
 C        -0.808243         1.303410        -0.156304
 C        -2.025941         1.309537         0.861662
 O        -1.444573         1.053847         2.121329
 H        -3.655324        -1.215927         2.761009
 H        -3.487582         0.342870         3.277663
 H        -4.765663         0.103483         1.971710
 H        -1.325046        -1.727425         2.060795
 H        -2.551595        -2.054563         0.935067
 H        -0.148713        -2.128780         0.023822
 H        -1.383653        -1.360764        -1.025279
 H        -0.203402         2.143307         0.024047
 H        -1.093262         1.378520        -1.237749
 H        -2.897604         2.059926         0.787051
