19
Iteration:  3233charge 0 multiplicity 1
 C        -3.925706        -0.398645         1.337768
 C        -2.340264        -0.148585         1.548999
 C        -1.403710        -1.338175         1.491002
 C        -0.014837        -1.215863         0.790613
 C         0.139486         0.085554         0.111267
 O         0.362992         0.119605        -1.077250
 C        -0.381823         1.300280         0.933256
 C        -1.930631         1.236123         1.131230
 O        -2.236708         0.942187         2.496931
 H        -3.905385        -1.546016         1.485144
 H        -4.296071         0.179519         2.134099
 H        -4.355427         0.048958         0.401824
 H        -1.351271        -1.445540         2.600527
 H        -1.938575        -2.180155         1.103709
 H         0.797562        -1.492954         1.501351
 H         0.064805        -2.050808        -0.005397
 H         0.002216         1.528586         1.869827
 H         0.016838         2.083641         0.249828
 H        -2.654039         1.925585         0.577078
