19
Iteration:  2370
 C        -4.041466        -0.343495         1.299764
 C        -2.507123        -0.077583         1.624350
 C        -1.567653        -1.303303         1.534769
 C        -0.120425        -1.118274         0.918781
 C         0.128939         0.056524        -0.008815
 O         0.598687         0.116868        -1.163996
 C        -0.395334         1.247096         0.691934
 C        -1.818077         1.135137         1.215010
 O        -2.060460         0.858428         2.661182
 H        -4.382479        -1.354195         1.489911
 H        -4.521889         0.558389         1.886277
 H        -4.177145        -0.205784         0.237025
 H        -1.493373        -1.848295         2.543819
 H        -2.225962        -1.899877         0.821917
 H         0.624823        -0.874842         1.755202
 H         0.094972        -2.061599         0.394825
 H         0.297508         1.258473         1.502165
 H        -0.239652         2.068209         0.066070
 H        -2.610119         1.884704         0.804879
