19
Iteration:  1350charge 0 multiplicity 1
 C        -3.686094        -0.211359         2.353538
 C        -2.473616        -0.116859         1.512405
 C        -1.825692        -1.384163         1.045663
 C        -0.663172        -1.194182         0.006525
 C         0.085600         0.166474         0.062073
 O         1.206078         0.111058         0.588559
 C        -0.896422         1.285261        -0.175813
 C        -2.068626         1.149889         0.908180
 O        -1.574503         0.773828         2.225228
 H        -3.440214        -0.558282         3.350146
 H        -4.176619         0.889884         2.386020
 H        -4.524754        -0.836651         2.023546
 H        -1.368653        -1.934588         1.954711
 H        -2.468541        -2.180614         0.549543
 H         0.143555        -1.833521         0.272155
 H        -1.133492        -1.387131        -0.979170
 H        -0.536025         2.217471        -0.019137
 H        -1.394253         1.323770        -1.145077
 H        -2.708085         2.080784         0.837970
