19
Iteration:  3073
 C        -3.908049        -0.461861         1.782196
 C        -2.508302        -0.089899         1.533673
 C        -1.772388        -1.297762         1.128395
 C        -0.266345        -1.164802         0.772942
 C         0.145311         0.078573         0.094422
 O         0.984784         0.154368        -0.759510
 C        -0.598281         1.385523         0.514248
 C        -1.895188         1.252509         1.099302
 O        -1.978339         0.754660         2.518604
 H        -3.946299        -1.010386         2.680933
 H        -4.567018         0.442389         1.988655
 H        -4.567286        -1.019202         1.113004
 H        -1.918630        -2.015982         1.901309
 H        -2.411922        -1.711435         0.306287
 H         0.230617        -1.184890         1.712491
 H        -0.007903        -2.099528         0.216185
 H         0.160299         1.970104         1.181718
 H        -0.711694         1.866584        -0.509184
 H        -2.580903         2.074198         0.931302
