19
Iteration:  3336
 C        -3.712458        -0.654211         1.233016
 C        -2.397572        -0.159681         1.667825
 C        -1.245053        -1.101468         1.801080
 C        -0.696120        -1.302817         0.438430
 C        -0.045127         0.087529        -0.023990
 O         0.768430         0.263243        -0.939793
 C        -0.345039         1.297536         0.831755
 C        -1.806558         1.207666         1.154763
 O        -2.288807         0.941386         2.593586
 H        -4.258972        -1.014394         2.092237
 H        -4.418107         0.257144         0.930457
 H        -3.609074        -1.502954         0.566970
 H        -0.760412        -0.859861         2.731150
 H        -1.749360        -2.050880         2.222161
 H         0.140584        -1.956815         0.220580
 H        -1.545079        -1.626344        -0.167998
 H         0.372677         1.267274         1.577553
 H        -0.284309         2.206070         0.311573
 H        -2.463405         1.805654         0.591988
