19
Iteration:  3312charge 0 multiplicity 1
 C        -3.726931        -0.548336         1.170539
 C        -2.362726        -0.156996         1.619929
 C        -1.220385        -1.190703         1.755498
 C        -0.473898        -1.308943         0.433874
 C         0.043116         0.075993         0.035852
 O         0.665531         0.123819        -1.017490
 C        -0.480299         1.270130         0.863154
 C        -1.945806         1.272107         1.262440
 O        -2.281302         1.019648         2.646053
 H        -4.203441        -1.368887         1.716898
 H        -4.413627         0.344338         1.271574
 H        -3.653966        -0.886243         0.128048
 H        -0.675504        -0.846156         2.591771
 H        -1.621152        -2.092998         2.241953
 H         0.494082        -1.792266         0.444103
 H        -1.058834        -1.819783        -0.385555
 H        -0.013923         1.315404         1.785144
 H        -0.223777         2.164653         0.339788
 H        -2.656265         2.016547         0.885759
