19
Iteration:  4564charge 0 multiplicity 1
 C        -3.930775        -0.553822         1.737582
 C        -2.404969        -0.155695         1.730398
 C        -1.389169        -1.316006         1.556340
 C        -0.648471        -1.155777         0.190900
 C         0.085269         0.120403        -0.092181
 O         1.230302         0.085129        -0.498659
 C        -0.668464         1.385133         0.360963
 C        -2.007055         1.140505         1.162496
 O        -2.089882         1.041756         2.612777
 H        -3.937070        -1.694224         1.610947
 H        -4.189276        -0.417085         2.774723
 H        -4.534365        -0.145814         0.892084
 H        -0.694665        -1.407872         2.430744
 H        -1.955427        -2.213585         1.439916
 H         0.043854        -1.975431        -0.008994
 H        -1.368816        -1.218914        -0.630463
 H         0.008812         2.203783         0.616550
 H        -1.137795         1.756691        -0.602741
 H        -2.771392         1.796738         0.685282
