19
Iteration:  2478
 C        -3.776686        -0.325866         1.419809
 C        -2.375665        -0.112463         1.704179
 C        -1.421556        -1.334665         1.564799
 C        -0.356304        -1.320321         0.537785
 C         0.069337         0.028715        -0.031402
 O         0.817499         0.144835        -0.968531
 C        -0.533053         1.264578         0.770496
 C        -1.995769         1.175915         1.164733
 O        -2.238469         1.011604         2.590549
 H        -4.410209        -0.516402         2.281232
 H        -4.215977         0.764546         1.109561
 H        -4.010724        -0.920743         0.582601
 H        -1.001963        -1.679822         2.558354
 H        -2.096107        -2.201224         1.302481
 H         0.692192        -1.600167         0.978049
 H        -0.427698        -2.123311        -0.249185
 H        -0.020062         1.484299         1.752670
 H        -0.261543         2.118575         0.129558
 H        -2.711982         1.948150         0.807806
