19
Iteration:  4267
 C        -3.808031        -0.252205         2.322726
 C        -2.477659        -0.139253         1.541405
 C        -1.867532        -1.366786         0.721866
 C        -0.281083        -1.289328         0.531160
 C        -0.023610         0.163433         0.100080
 O         1.138502         0.495590         0.070294
 C        -1.120435         1.204547        -0.120917
 C        -1.939152         1.219546         1.149782
 O        -1.515237         0.531407         2.304502
 H        -3.611797        -0.989836         3.112961
 H        -3.981460         0.752973         2.723594
 H        -4.631380        -0.576968         1.694360
 H        -2.339421        -2.274198         1.263557
 H        -2.375267        -1.290308        -0.213988
 H         0.438991        -1.539249         1.317627
 H        -0.073215        -2.034944        -0.287744
 H        -0.737314         2.162778        -0.187442
 H        -1.770290         0.965357        -0.986413
 H        -2.519411         2.197987         1.404834
