19
Iteration:  3634charge 0 multiplicity 1
 C        -3.643137        -0.319259         2.279365
 C        -2.389480        -0.170567         1.507677
 C        -1.669507        -1.449822         1.004658
 C        -0.636495        -1.230470        -0.045179
 C        -0.046784         0.190842         0.225618
 O         1.103488         0.450925         0.602482
 C        -1.167041         1.262964        -0.088742
 C        -2.115041         1.147875         1.005993
 O        -1.368893         0.717501         2.126762
 H        -3.434836        -0.243436         3.395589
 H        -4.333180         0.436682         1.944594
 H        -4.143572        -1.388093         2.152043
 H        -1.230805        -2.047607         1.851617
 H        -2.363108        -2.203476         0.540225
 H         0.103748        -2.038775        -0.088377
 H        -1.116201        -1.310444        -1.094791
 H        -0.804029         2.256269        -0.070341
 H        -1.362297         1.038931        -1.188951
 H        -2.896240         1.920178         1.024085
