19
Iteration:  3438
 C        -3.899648        -0.481963         1.670954
 C        -2.475207        -0.226157         1.671698
 C        -1.398475        -1.311640         1.525928
 C        -0.442237        -1.211869         0.312665
 C         0.119833         0.154994         0.050255
 O         1.094048         0.175611        -0.709796
 C        -0.696915         1.400542         0.488489
 C        -2.039411         1.183427         1.164671
 O        -2.074643         0.887560         2.595121
 H        -4.326348        -1.049720         2.565111
 H        -4.457091         0.345719         1.349025
 H        -4.110119        -1.194740         0.801656
 H        -0.737704        -1.245178         2.437681
 H        -1.947543        -2.250291         1.383163
 H         0.303115        -2.021962         0.397249
 H        -1.111017        -1.364941        -0.538938
 H        -0.173937         2.030278         1.192012
 H        -0.777998         2.005898        -0.458726
 H        -2.844421         1.933012         0.873574
