19
Iteration:   289charge 0 multiplicity 1
 C        -3.977161        -0.051857         1.449096
 C        -2.456633        -0.066823         1.470269
 C        -1.683966        -1.324954         1.080423
 C        -0.138169        -0.998213         1.197244
 C         0.090279         0.011156         0.114370
 O         0.699208        -0.196297        -0.943055
 C        -0.552536         1.322505         0.436594
 C        -1.842012         1.288434         1.263900
 O        -1.915435         0.613052         2.660509
 H        -4.403391        -0.941544         1.986202
 H        -4.311267         0.860583         2.148020
 H        -4.541414        -0.070747         0.544178
 H        -1.961519        -2.149951         1.686452
 H        -1.908928        -1.594605         0.080819
 H         0.197375        -0.568662         2.174931
 H         0.278688        -1.978127         0.952452
 H         0.292454         1.942427         0.820199
 H        -0.756436         1.819695        -0.508112
 H        -2.567874         2.111311         1.265179
