19
Iteration:  4611charge 0 multiplicity 1
 C        -3.898531        -0.567295         1.752873
 C        -2.433842        -0.142926         1.584621
 C        -1.410581        -1.269811         1.676197
 C        -0.595947        -1.327446         0.295767
 C         0.012678         0.070877        -0.038858
 O         1.083528         0.290431        -0.580725
 C        -0.589144         1.271382         0.445559
 C        -1.945921         1.207788         1.073534
 O        -2.073560         0.997525         2.461623
 H        -4.299222        -1.386489         1.212219
 H        -3.945678        -0.805809         2.862628
 H        -4.407849         0.353831         1.452219
 H        -0.861655        -1.044677         2.569191
 H        -1.899665        -2.327385         1.785019
 H         0.209308        -2.134485         0.091707
 H        -1.346645        -1.631679        -0.435383
 H         0.028587         1.760661         1.289866
 H        -0.569562         2.011666        -0.265300
 H        -2.592578         1.979318         0.641569
