19
Iteration:  2756
 C        -3.852644        -0.336396         2.044236
 C        -2.466191        -0.152538         1.599607
 C        -1.702777        -1.393504         1.214177
 C        -0.515772        -1.271703         0.285476
 C         0.138753         0.124261         0.152821
 O         1.365804         0.180898        -0.187841
 C        -0.850623         1.350207         0.087775
 C        -2.039382         1.115958         1.045812
 O        -1.925823         0.945766         2.453776
 H        -3.906836        -1.036426         2.896034
 H        -4.199624         0.529971         2.453187
 H        -4.622174        -0.697932         1.299991
 H        -1.359291        -1.904384         2.141965
 H        -2.480033        -1.979075         0.646821
 H         0.293803        -1.989472         0.390796
 H        -0.810583        -1.558335        -0.713008
 H        -0.212071         2.309739         0.404280
 H        -1.309178         1.491470        -0.913206
 H        -2.812441         1.861303         0.772286
