19
Iteration:   698charge 0 multiplicity 1
 C        -3.751192        -0.107716         2.200229
 C        -2.439958        -0.177839         1.504011
 C        -1.778613        -1.479274         1.158025
 C        -0.696860        -1.226269         0.065944
 C         0.017423         0.108194         0.125036
 O         1.180898         0.172725         0.484945
 C        -0.973063         1.326112        -0.109139
 C        -2.071170         1.153067         0.916329
 O        -1.440300         0.772242         2.240686
 H        -3.555169        -0.584415         3.186867
 H        -4.084151         0.868813         2.236108
 H        -4.589404        -0.607208         1.602859
 H        -1.151403        -1.712708         2.035496
 H        -2.395000        -2.291932         0.966579
 H         0.249459        -1.910740         0.142303
 H        -1.177727        -1.342837        -0.982916
 H        -0.338765         2.361034        -0.092635
 H        -1.447841         1.349174        -1.099798
 H        -2.876631         1.875367         0.873206
