19
Iteration:   370
 C        -3.968556        -0.181812         1.178822
 C        -2.387722        -0.071618         1.372511
 C        -1.482515        -1.355154         1.585701
 C        -0.008712        -1.308711         1.013341
 C         0.048101        -0.000818         0.092481
 O         0.174330         0.084081        -1.103725
 C        -0.173645         1.185481         0.910558
 C        -1.797792         1.227855         1.179709
 O        -2.123377         0.966693         2.511521
 H        -4.457587        -0.612832         2.043059
 H        -4.452914         0.746039         1.019732
 H        -4.239646        -0.745301         0.211087
 H        -1.604524        -1.575284         2.692033
 H        -1.872026        -2.250809         0.985975
 H         0.690966        -1.032671         1.800636
 H         0.377423        -2.274711         0.592698
 H         0.223906         1.126236         1.893521
 H         0.143913         2.048658         0.311225
 H        -2.265545         2.099849         0.687899
