19
Iteration:  2178charge 0 multiplicity 1
 C        -4.016930        -0.249729         1.920673
 C        -2.511292        -0.101846         1.463086
 C        -1.788063        -1.365122         1.226531
 C        -0.419300        -1.239154         0.573589
 C         0.063788         0.100057         0.018212
 O         1.229857         0.181770        -0.371870
 C        -0.694726         1.314896         0.178907
 C        -1.944559         1.252701         1.123627
 O        -1.828098         0.698580         2.472047
 H        -4.126377        -1.331704         2.219465
 H        -4.081379         0.328976         2.861394
 H        -4.771753         0.035661         1.131923
 H        -1.621112        -1.665793         2.253581
 H        -2.333817        -2.225035         0.865096
 H         0.382346        -1.347878         1.309118
 H        -0.306224        -2.010744        -0.242363
 H        -0.031287         2.043272         0.464883
 H        -1.095493         1.731479        -0.811344
 H        -2.559132         2.095379         1.068160
