19
Iteration:  3708
 C        -3.762637        -0.369810         2.209946
 C        -2.372487        -0.212118         1.546772
 C        -1.771946        -1.467758         0.964250
 C        -0.438226        -1.202460         0.221816
 C         0.075509         0.201661         0.267649
 O         1.272822         0.422451         0.019003
 C        -1.045293         1.288694         0.033509
 C        -2.149711         1.084319         1.041183
 O        -1.671387         0.812686         2.396607
 H        -3.585683        -0.963737         3.176911
 H        -4.140612         0.543596         2.613684
 H        -4.647454        -0.820901         1.582107
 H        -1.869242        -2.163792         1.794804
 H        -2.428616        -1.970577         0.085755
 H         0.285390        -2.011359         0.303031
 H        -0.646349        -1.211367        -0.817229
 H        -0.552802         2.290741        -0.033359
 H        -1.510872         0.981234        -1.001091
 H        -2.785905         1.986724         1.023912
