19
Iteration:   104
 C        -3.788296        -0.062048         2.217968
 C        -2.372598        -0.034910         1.597801
 C        -1.761096        -1.335728         1.128586
 C        -0.729632        -1.286260        -0.094715
 C         0.047139        -0.023648         0.054467
 O         0.978658         0.126834         0.789631
 C        -0.922979         1.174180        -0.309481
 C        -1.938725         1.174371         0.921575
 O        -1.370526         0.850898         2.256950
 H        -3.916049        -0.972596         2.793626
 H        -3.784623         0.828538         2.886507
 H        -4.511900         0.012053         1.432874
 H        -1.334574        -2.032706         1.941874
 H        -2.620810        -1.933443         0.625164
 H        -0.083656        -2.229188        -0.047019
 H        -1.348134        -1.365821        -1.031191
 H        -0.337455         2.117612        -0.421772
 H        -1.479060         0.860516        -1.246299
 H        -2.555561         2.084113         0.941671
