19
Iteration:  3864charge 0 multiplicity 1
 C        -3.876065        -0.480084         1.750188
 C        -2.473537        -0.202178         1.394643
 C        -1.585348        -1.373278         0.956055
 C        -0.109191        -1.026964         0.958254
 C         0.039570         0.217109         0.206474
 O         0.601564         0.075291        -0.879959
 C        -0.612688         1.602004         0.574665
 C        -1.939281         1.254935         1.238396
 O        -1.847761         0.585689         2.529250
 H        -3.955002        -0.922164         2.753611
 H        -4.662522         0.381736         1.629269
 H        -4.166155        -1.378566         1.137346
 H        -1.741932        -2.287386         1.560985
 H        -2.004019        -1.839205        -0.067793
 H         0.282520        -0.863142         1.947884
 H         0.410057        -1.815934         0.447431
 H        -0.076825         2.133599         1.317184
 H        -0.705540         2.313715        -0.341032
 H        -2.630741         2.079681         1.051678
