19
Iteration:  4617charge 0 multiplicity 1
 C        -3.868462        -0.546492         1.786877
 C        -2.383622        -0.167387         1.624103
 C        -1.414855        -1.332407         1.660286
 C        -0.607433        -1.331852         0.293745
 C         0.002080         0.029722        -0.013517
 O         1.078359         0.309486        -0.607360
 C        -0.583830         1.302388         0.469676
 C        -1.936184         1.192396         1.040232
 O        -2.125830         1.037706         2.467166
 H        -4.172252        -1.267382         0.921820
 H        -4.115150        -0.883500         2.779258
 H        -4.492176         0.355605         1.552690
 H        -0.711292        -1.149709         2.531011
 H        -1.996838        -2.188296         1.693291
 H         0.203388        -2.010264         0.389349
 H        -1.319418        -1.488725        -0.561287
 H         0.133500         1.579094         1.214470
 H        -0.496937         2.140369        -0.362983
 H        -2.628050         1.893815         0.526412
