19
Iteration:  2815charge 0 multiplicity 1
 C        -3.837725        -0.246497         2.088123
 C        -2.365800        -0.163023         1.593576
 C        -1.697203        -1.454173         1.236517
 C        -0.687738        -1.237414         0.072169
 C        -0.018365         0.143287         0.080543
 O         1.164259         0.406059         0.436336
 C        -0.986534         1.192242        -0.184639
 C        -1.966401         1.130465         0.953991
 O        -1.485482         0.768574         2.293374
 H        -3.844118        -0.996965         2.856037
 H        -3.963490         0.802253         2.516987
 H        -4.485389        -0.495936         1.302237
 H        -1.391179        -1.821695         2.248065
 H        -2.381864        -2.242929         0.952636
 H         0.175894        -1.876858         0.249618
 H        -1.326420        -1.374026        -0.825210
 H        -0.540593         2.124888        -0.243361
 H        -1.618613         1.026592        -1.146638
 H        -2.602355         1.970894         1.133109
