19
Iteration:  4501
 C        -3.894956        -0.476829         1.912018
 C        -2.436081        -0.192976         1.644248
 C        -1.407194        -1.348996         1.479838
 C        -0.608442        -1.182138         0.102429
 C         0.034520         0.142995        -0.158813
 O         1.271605         0.073465        -0.194726
 C        -0.785807         1.471408         0.182452
 C        -2.081112         1.204800         1.073997
 O        -1.937020         0.879259         2.528214
 H        -4.241148        -1.470969         2.080918
 H        -4.149644         0.108262         2.820637
 H        -4.740426        -0.139945         1.262482
 H        -0.660621        -1.212314         2.262610
 H        -1.855171        -2.443111         1.548952
 H         0.197337        -1.984298         0.210509
 H        -1.395165        -1.264370        -0.674274
 H        -0.091609         2.205243         0.760940
 H        -1.178279         1.950394        -0.665190
 H        -2.936258         1.870509         1.007843
