19
Iteration:  1409charge 0 multiplicity 1
 C        -3.855457        -0.350766         1.936793
 C        -2.367579        -0.056959         1.690895
 C        -1.540386        -1.386771         1.348639
 C        -0.732940        -1.213870         0.087624
 C         0.037388         0.041683         0.085279
 O         1.252929        -0.009449         0.067494
 C        -0.817230         1.338733         0.101344
 C        -1.992460         1.160857         0.960607
 O        -1.798106         1.051015         2.401249
 H        -4.095877        -1.117291         2.698940
 H        -4.387280         0.502861         2.293203
 H        -4.329551        -0.608291         0.956860
 H        -1.043389        -1.700298         2.251036
 H        -2.334511        -2.124095         1.149150
 H         0.015206        -1.998504        -0.185333
 H        -1.453550        -1.276767        -0.765578
 H        -0.208742         2.252777         0.547991
 H        -1.160590         1.575025        -0.919307
 H        -2.893736         1.720883         0.739256
