19
Iteration:  2045
 C        -3.702453        -0.164563         2.350732
 C        -2.440665        -0.069932         1.541793
 C        -1.976243        -1.327605         0.696520
 C        -0.490756        -1.364579         0.410798
 C        -0.010292         0.008755         0.169477
 O         1.109248         0.377301         0.457006
 C        -1.040292         1.118993        -0.212598
 C        -1.988756         1.228381         1.005881
 O        -1.383438         0.737096         2.169433
 H        -3.421962        -0.679979         3.292815
 H        -4.097054         0.899947         2.632830
 H        -4.489800        -0.775205         1.924507
 H        -2.251139        -2.229745         1.248248
 H        -2.553927        -1.157033        -0.227597
 H         0.130557        -1.725921         1.252700
 H        -0.142784        -2.087930        -0.388559
 H        -0.507190         2.010604        -0.415474
 H        -1.777428         0.841471        -1.096348
 H        -2.545187         2.206824         1.002010
