19
Iteration:  2665
 C        -3.973073        -0.325842         1.526005
 C        -2.491475        -0.152208         1.655000
 C        -1.548776        -1.360533         1.584073
 C        -0.470103        -1.241727         0.453245
 C         0.118219         0.093429         0.109016
 O         1.065449         0.198566        -0.684523
 C        -0.684244         1.327380         0.430002
 C        -2.004961         1.125024         1.147096
 O        -1.902344         0.888140         2.562644
 H        -4.289881        -0.872174         2.442460
 H        -4.346186         0.711108         1.572215
 H        -4.098499        -0.802984         0.589041
 H        -0.953036        -1.457730         2.492168
 H        -2.073614        -2.343918         1.434328
 H         0.335716        -2.051368         0.559999
 H        -0.788962        -1.517076        -0.529980
 H         0.028792         2.014702         1.090935
 H        -0.784027         1.866737        -0.500927
 H        -2.844769         1.765436         0.730228
