19
Iteration:   218charge 0 multiplicity 1
 C        -3.961604        -0.156039         1.931860
 C        -2.525468        -0.016578         1.552713
 C        -1.901205        -1.332457         0.960585
 C        -0.418998        -1.395229         0.745354
 C         0.136561        -0.051528         0.085573
 O         1.190448         0.073197        -0.440243
 C        -0.661972         1.207316         0.322365
 C        -1.930162         1.324488         1.114093
 O        -1.761875         0.914363         2.458016
 H        -4.149083        -0.872510         2.757840
 H        -4.302306         0.777711         2.274976
 H        -4.695417        -0.591859         1.165901
 H        -2.344701        -2.254067         1.428413
 H        -2.377118        -1.358633        -0.067069
 H         0.033642        -1.408238         1.725987
 H         0.038233        -2.209557         0.103250
 H         0.036088         2.072810         0.389548
 H        -1.066807         1.290458        -0.754397
 H        -2.717158         2.076608         0.925903
