19
Iteration:  2926charge 0 multiplicity 1
 C        -3.745920        -0.163331         2.326318
 C        -2.482134        -0.141896         1.546342
 C        -1.743564        -1.425660         1.017350
 C        -0.525678        -1.266750         0.036239
 C         0.045170         0.116712         0.209482
 O         1.223819         0.387366         0.419701
 C        -0.956755         1.196759        -0.114461
 C        -2.139115         1.097599         0.901257
 O        -1.576788         0.738444         2.223826
 H        -3.620911        -0.679438         3.337792
 H        -4.172067         0.849691         2.445758
 H        -4.592862        -0.711654         1.880549
 H        -1.560266        -1.970374         2.025520
 H        -2.527303        -2.023361         0.474350
 H         0.338016        -1.981511         0.371593
 H        -0.845121        -1.486339        -0.999897
 H        -0.415545         2.124339         0.142480
 H        -1.428931         1.192085        -1.223447
 H        -2.789441         1.999304         0.976735
