19
Iteration:  1048
 C        -3.750577        -0.138876         0.971854
 C        -2.302324        -0.153976         1.494787
 C        -1.436503        -1.449096         1.345592
 C         0.085459        -1.172528         1.065225
 C         0.075370         0.126677         0.161205
 O        -0.194452        -0.078049        -0.998329
 C        -0.286469         1.463113         0.823132
 C        -1.794925         1.235902         1.336772
 O        -2.041186         0.756679         2.605139
 H        -4.161506        -1.142165         1.057478
 H        -4.427876         0.746115         1.419518
 H        -3.748300         0.061450        -0.121137
 H        -1.499935        -2.309241         2.138805
 H        -1.877915        -2.002362         0.415399
 H         0.479363        -1.023111         2.076529
 H         0.805897        -1.927061         0.525242
 H         0.185012         1.818047         1.785677
 H        -0.394303         2.220237         0.170378
 H        -2.567494         2.037461         1.214339
