19
Iteration:  3566charge 0 multiplicity 1
 C        -3.688864        -0.521296         2.211398
 C        -2.401274        -0.116848         1.549009
 C        -1.634640        -1.341338         1.159039
 C        -0.650529        -1.210160         0.025410
 C         0.009779         0.124934         0.208250
 O         1.196733         0.337223         0.300703
 C        -0.987929         1.330328         0.015665
 C        -2.194203         1.176630         0.921832
 O        -1.560838         0.846523         2.212727
 H        -3.574340        -1.213836         3.118990
 H        -4.412843         0.170635         2.638876
 H        -4.319482        -1.112697         1.488378
 H        -1.185308        -1.780281         2.056831
 H        -2.314363        -2.212770         0.874947
 H         0.084853        -2.033935         0.101838
 H        -1.193215        -1.405499        -0.919789
 H        -0.388958         2.246778         0.166879
 H        -1.312805         1.332566        -1.065840
 H        -2.825217         2.058750         1.032602
