19
Iteration:   732charge 0 multiplicity 1
 C        -3.686981        -0.276301         2.369207
 C        -2.427835        -0.042210         1.511637
 C        -1.905216        -1.408313         0.977733
 C        -0.649934        -1.278377         0.035477
 C        -0.026475         0.024281         0.140231
 O         1.037014         0.307533         0.667329
 C        -0.906967         1.194274        -0.227635
 C        -1.973749         1.221863         0.878187
 O        -1.392213         0.832619         2.187059
 H        -3.447762        -0.519880         3.445438
 H        -4.236997         0.665716         2.537097
 H        -4.275958        -1.168105         1.982018
 H        -1.598864        -2.004083         1.853696
 H        -2.696320        -1.955469         0.551222
 H         0.109951        -2.129074         0.195862
 H        -0.976851        -1.320826        -1.088818
 H        -0.144606         2.115917        -0.254347
 H        -1.407025         1.021607        -1.205928
 H        -2.557117         2.119681         0.900462
