19
Iteration:  2794charge 0 multiplicity 1
 C        -3.923539        -0.303262         2.057670
 C        -2.463240        -0.149925         1.572539
 C        -1.702712        -1.404310         1.314163
 C        -0.619223        -1.341639         0.191767
 C        -0.000318         0.109699         0.146195
 O         1.217769         0.381254         0.205041
 C        -0.931750         1.362491        -0.059937
 C        -2.001997         1.177231         0.981884
 O        -1.469392         0.733747         2.185329
 H        -3.963731        -1.242599         2.667999
 H        -4.418986         0.574242         2.650247
 H        -4.506588        -0.576478         1.203941
 H        -1.275172        -1.610615         2.311406
 H        -2.380537        -2.250804         1.234049
 H         0.063721        -2.200918         0.439146
 H        -1.250384        -1.313237        -0.727852
 H        -0.421177         2.216874         0.234142
 H        -1.159329         1.543335        -1.143530
 H        -2.781518         1.905379         1.222933
