19
Iteration:  3612
 C        -3.724635        -0.307803         2.386988
 C        -2.379220        -0.182412         1.601643
 C        -1.673354        -1.439639         0.991495
 C        -0.538938        -1.216835        -0.149984
 C         0.008950         0.174447         0.066087
 O         1.095983         0.445236         0.619343
 C        -1.070284         1.241414        -0.151417
 C        -2.077575         1.076164         0.948423
 O        -1.518916         0.745623         2.260994
 H        -3.632644        -0.177664         3.508664
 H        -4.339750         0.517917         2.059317
 H        -4.452341        -1.221044         2.232686
 H        -1.019600        -2.018684         1.675526
 H        -2.516910        -2.139871         0.822480
 H         0.280926        -1.932016        -0.279432
 H        -1.026388        -1.185912        -1.210027
 H        -0.598095         2.181922        -0.115857
 H        -1.522286         1.149575        -1.191326
 H        -2.784246         1.917402         0.902713
