19
Iteration:  3279charge 0 multiplicity 1
 C        -3.793934        -0.506425         1.230358
 C        -2.417436        -0.135775         1.620244
 C        -1.437078        -1.295784         1.807019
 C        -0.356781        -1.213646         0.660763
 C         0.073814         0.119293         0.024003
 O         0.581450         0.226785        -1.106278
 C        -0.324197         1.289932         0.750762
 C        -1.861533         1.158842         1.214232
 O        -2.271442         0.912675         2.585318
 H        -3.947497        -1.579484         1.439024
 H        -4.475365         0.146118         1.817829
 H        -3.965808        -0.222982         0.178960
 H        -0.973131        -1.134985         2.750745
 H        -1.994410        -2.266498         1.765210
 H         0.662673        -1.396373         1.004074
 H        -0.521883        -2.022040        -0.091448
 H         0.198945         1.341456         1.633623
 H        -0.200688         2.243805         0.281087
 H        -2.224352         1.951242         0.634626
