19
Iteration:  1904charge 0 multiplicity 1
 C        -3.915490        -0.383600         1.855453
 C        -2.415571        -0.033855         1.659888
 C        -1.680385        -1.288713         1.367731
 C        -0.733783        -1.188101         0.193155
 C         0.145417         0.070657         0.183309
 O         1.353455         0.039775        -0.137970
 C        -0.811334         1.276677         0.096574
 C        -2.054822         1.203149         1.087783
 O        -1.739766         0.936955         2.477059
 H        -4.100440        -0.723468         2.837387
 H        -4.584403         0.522628         1.609798
 H        -4.061015        -1.124366         1.154888
 H        -1.126524        -1.838417         2.216643
 H        -2.353276        -2.131045         0.912480
 H        -0.128141        -2.100318        -0.084257
 H        -1.245765        -1.106463        -0.814210
 H        -0.278647         2.145391         0.310906
 H        -1.257022         1.284093        -0.933919
 H        -2.927399         1.858100         0.841533
