19
Iteration:  4067charge 0 multiplicity 1
 C        -3.854309        -0.349754         1.524935
 C        -2.352203        -0.255995         1.489580
 C        -1.542679        -1.493893         0.957360
 C        -0.098740        -1.003289         1.057821
 C        -0.019869         0.248348         0.055619
 O         0.467613         0.022208        -0.998290
 C        -0.621813         1.610776         0.659305
 C        -1.918772         1.174810         1.332949
 O        -1.855715         0.637033         2.660413
 H        -4.189214        -0.570480         2.541064
 H        -4.294073         0.590329         1.213117
 H        -4.219486        -1.161999         0.789860
 H        -1.838391        -2.408387         1.637994
 H        -1.961832        -1.645843        -0.016932
 H         0.317636        -0.737290         2.080483
 H         0.522379        -1.773714         0.588777
 H         0.127545         1.921364         1.399798
 H        -0.541614         2.356057        -0.167986
 H        -2.686047         1.981298         1.179885
