19
Iteration:  1625charge 0 multiplicity 1
 C        -3.621917        -0.272079         0.825192
 C        -2.314299        -0.036940         1.435499
 C        -1.430549        -1.161101         1.840894
 C        -0.186565        -1.422940         0.968304
 C        -0.046275        -0.031257         0.021727
 O         0.064059        -0.013140        -1.192606
 C        -0.192307         1.250309         0.978158
 C        -1.715049         1.291441         1.355581
 O        -2.272292         0.969344         2.592279
 H        -4.344287        -0.899851         1.339766
 H        -4.070157         0.720898         0.743929
 H        -3.561831        -0.799840        -0.139855
 H        -1.002664        -0.807027         2.806102
 H        -2.026806        -2.151870         1.963706
 H         0.677513        -1.799035         1.456024
 H        -0.387260        -2.079051         0.086427
 H         0.463627         1.208732         1.864199
 H         0.025306         2.083993         0.302435
 H        -2.259739         2.097106         0.845012
