19
Iteration:  4560charge 0 multiplicity 1
 C        -3.917303        -0.549939         1.736430
 C        -2.371842        -0.156319         1.693981
 C        -1.389317        -1.323351         1.570687
 C        -0.689059        -1.168718         0.196421
 C         0.068334         0.106270        -0.075770
 O         1.248547         0.135360        -0.490206
 C        -0.663845         1.347195         0.345396
 C        -1.989050         1.166348         1.177416
 O        -2.088162         1.044021         2.598742
 H        -3.867160        -1.654275         1.677065
 H        -4.296488        -0.429723         2.759628
 H        -4.504740        -0.127956         0.951351
 H        -0.765734        -1.559738         2.458332
 H        -1.953014        -2.255023         1.470244
 H        -0.115229        -2.044438        -0.060561
 H        -1.448351        -1.271073        -0.622567
 H        -0.082006         2.206970         0.640608
 H        -1.190242         1.792375        -0.595210
 H        -2.767733         1.709300         0.640828
