19
Iteration:  3799charge 0 multiplicity 1
 C        -3.967219        -0.386652         1.847879
 C        -2.487964        -0.205114         1.665357
 C        -1.689994        -1.363521         0.943617
 C        -0.182066        -1.118473         0.817757
 C         0.124599         0.151980         0.055255
 O         1.070965         0.325022        -0.697813
 C        -0.933554         1.379787         0.255554
 C        -2.011020         1.094834         1.269846
 O        -1.766053         0.672877         2.611447
 H        -4.307037        -1.371251         2.179392
 H        -4.267508         0.449833         2.591759
 H        -4.371797        -0.115563         0.853628
 H        -1.837588        -2.426764         1.255268
 H        -2.027059        -1.518632        -0.156627
 H         0.320043        -1.061632         1.774516
 H         0.247865        -1.974420         0.316011
 H        -0.416308         2.298611         0.500566
 H        -1.504583         1.573594        -0.748358
 H        -2.795602         1.828138         1.336559
