19
Iteration:    91charge 0 multiplicity 1
 C        -3.657753        -0.125802         2.218032
 C        -2.310197         0.035926         1.558783
 C        -1.790872        -1.389186         1.108259
 C        -0.782152        -1.305943        -0.080071
 C        -0.075191        -0.016547         0.079733
 O         0.962214         0.112259         0.814754
 C        -0.889479         1.103279        -0.223990
 C        -1.916782         1.305019         0.842693
 O        -1.425383         0.865199         2.187572
 H        -3.687052        -1.197771         2.583021
 H        -3.838184         0.398558         3.078778
 H        -4.521623         0.056577         1.626867
 H        -1.234338        -1.720715         2.047812
 H        -2.675108        -2.081577         0.963182
 H        -0.004442        -2.210118        -0.062923
 H        -1.268238        -1.233494        -1.010669
 H        -0.225793         2.041626        -0.156147
 H        -1.345173         1.177254        -1.191152
 H        -2.561543         2.133704         0.851202
