19
Iteration:   299
 C        -3.908287        -0.115182         1.431026
 C        -2.464189        -0.029160         1.502100
 C        -1.675476        -1.209917         1.143297
 C        -0.112516        -1.090138         1.195565
 C         0.076911        -0.075788         0.112782
 O         0.605410        -0.142088        -0.986612
 C        -0.535785         1.326458         0.521892
 C        -1.828519         1.232921         1.271154
 O        -1.954421         0.667392         2.580218
 H        -4.310891        -1.040241         1.950270
 H        -4.376084         0.819445         1.912273
 H        -4.147547        -0.032587         0.386268
 H        -1.943146        -2.062923         1.701760
 H        -1.850352        -1.413265         0.141648
 H         0.254815        -0.684224         2.182204
 H         0.387443        -2.019822         1.024830
 H         0.203660         1.906203         1.158942
 H        -0.700632         1.801477        -0.425751
 H        -2.430458         2.114072         1.106634
