19
Iteration:  4368
 C        -3.830652        -0.402789         2.229977
 C        -2.413282        -0.158995         1.671995
 C        -1.859711        -1.397873         0.993472
 C        -0.534494        -1.247426         0.203370
 C         0.030275         0.185903         0.125007
 O         1.239808         0.416450         0.166319
 C        -0.999759         1.261558        -0.175687
 C        -1.940761         1.099929         1.064333
 O        -1.533045         0.797440         2.395267
 H        -3.729001        -0.132216         3.320398
 H        -4.409765         0.309082         1.757599
 H        -4.238764        -1.373243         2.016116
 H        -1.873936        -2.277248         1.712994
 H        -2.754927        -1.614415         0.367328
 H         0.132580        -2.062522         0.359609
 H        -0.754822        -1.402960        -0.899094
 H        -0.491742         2.243721        -0.173390
 H        -1.696505         1.184075        -1.013735
 H        -2.741077         1.911703         1.020971
