19
Iteration:  3958
 C        -3.861293        -0.439044         1.190694
 C        -2.397238        -0.169967         1.535908
 C        -1.481219        -1.383798         1.469300
 C         0.004146        -1.139921         0.876482
 C        -0.021577         0.139836         0.114623
 O         0.290450         0.268540        -1.114410
 C        -0.497362         1.360683         0.684880
 C        -1.896962         1.202428         1.351221
 O        -1.910148         0.756956         2.677229
 H        -4.242764        -1.435775         1.273807
 H        -4.601050         0.145562         1.588513
 H        -3.970595        -0.382143         0.094536
 H        -1.450027        -1.773586         2.525491
 H        -1.976267        -2.138913         0.974925
 H         0.738625        -1.007681         1.739147
 H         0.319155        -1.982811         0.259169
 H         0.142258         1.564500         1.606831
 H        -0.393694         2.057919        -0.147924
 H        -2.713516         1.989719         1.173587
