19
Iteration:  4413
 C        -3.864875        -0.240956         2.177331
 C        -2.521172        -0.203916         1.433269
 C        -1.619415        -1.489802         1.221692
 C        -0.530834        -1.222938         0.160122
 C         0.008210         0.186905         0.079137
 O         1.216700         0.326559         0.035754
 C        -0.987455         1.416219         0.019692
 C        -1.980197         1.143940         1.086229
 O        -1.653492         0.662312         2.378685
 H        -3.547349        -0.219386         3.198177
 H        -4.466186         0.568160         1.882686
 H        -4.393502        -1.167255         1.932728
 H        -1.275435        -1.788919         2.225253
 H        -2.226517        -2.402730         0.884547
 H         0.368395        -1.888328         0.235212
 H        -0.947936        -1.512025        -0.861056
 H        -0.418250         2.386336         0.284456
 H        -1.309202         1.465178        -1.011618
 H        -2.690603         1.947905         1.259467
