19
Iteration:  2365charge 0 multiplicity 1
 C        -4.069486        -0.344356         1.314307
 C        -2.528466        -0.109432         1.570950
 C        -1.566088        -1.279532         1.522422
 C        -0.112793        -1.114377         0.930620
 C         0.124634         0.079421        -0.014291
 O         0.591465         0.081270        -1.156717
 C        -0.339941         1.256269         0.699184
 C        -1.849050         1.156875         1.271756
 O        -2.034430         0.851718         2.644476
 H        -4.433533        -1.355064         1.631983
 H        -4.623774         0.419139         1.760172
 H        -4.242933        -0.324779         0.201421
 H        -1.582294        -1.862617         2.410111
 H        -2.101918        -1.908760         0.844436
 H         0.566483        -0.899220         1.750653
 H         0.120081        -2.038932         0.396795
 H         0.400873         1.492437         1.557076
 H        -0.392801         2.110447        -0.099148
 H        -2.403127         1.983008         0.969981
