19
Iteration:  1022
 C        -3.815309        -0.185268         0.971389
 C        -2.335370        -0.128158         1.364346
 C        -1.445795        -1.273419         1.468630
 C         0.024733        -1.039263         1.142779
 C        -0.102348         0.091257         0.125651
 O        -0.104675         0.014892        -1.091145
 C        -0.220401         1.328568         0.828992
 C        -1.700986         1.191844         1.357077
 O        -2.007214         0.581477         2.604244
 H        -4.290502        -1.094836         1.424701
 H        -4.272028         0.688396         1.268502
 H        -3.918589        -0.129033        -0.141731
 H        -1.479750        -1.758927         2.366967
 H        -1.762823        -1.931196         0.717822
 H         0.463566        -0.658850         2.087620
 H         0.524182        -1.876172         0.802511
 H         0.477675         1.369969         1.621878
 H        -0.317216         2.287125         0.120804
 H        -2.385372         2.002737         1.182160
