19
Iteration:  4701
 C        -3.802689        -0.532777         1.441115
 C        -2.400518        -0.130703         1.662311
 C        -1.269969        -1.133337         1.703107
 C        -0.505409        -1.358467         0.392795
 C         0.037811        -0.040323        -0.016762
 O         0.892986         0.163798        -0.817945
 C        -0.610757         1.293410         0.623376
 C        -1.982922         1.258036         1.192068
 O        -2.183992         1.070241         2.559432
 H        -4.303546        -0.483388         0.460416
 H        -3.847321        -1.597981         1.596215
 H        -4.444622        -0.035050         2.123979
 H        -0.648857        -0.774574         2.532462
 H        -1.532424        -2.098785         2.211466
 H         0.222400        -2.163492         0.469000
 H        -1.194882        -1.841995        -0.307028
 H         0.159550         1.485795         1.399494
 H        -0.433563         1.909337        -0.278855
 H        -2.778838         1.881193         0.727157
