19
Iteration:  3287charge 0 multiplicity 1
 C        -3.821704        -0.489116         1.215525
 C        -2.374850        -0.143651         1.676767
 C        -1.382175        -1.263373         1.755580
 C        -0.328347        -1.252126         0.625190
 C         0.043205         0.111360        -0.032761
 O         0.611116         0.179225        -1.095381
 C        -0.400676         1.321150         0.811821
 C        -1.798086         1.186944         1.215236
 O        -2.308030         0.958268         2.615590
 H        -4.014076        -1.601731         1.371200
 H        -4.594748         0.042195         1.637127
 H        -3.828934        -0.402497         0.102975
 H        -1.007438        -1.196661         2.806589
 H        -1.879188        -2.177250         1.866267
 H         0.663441        -1.722825         0.915153
 H        -0.682949        -1.907652        -0.249610
 H         0.182658         1.344819         1.785192
 H        -0.153637         2.249973         0.206896
 H        -2.666350         1.810674         0.795376
