19
Iteration:  1489
 C        -3.851063        -0.416250         1.480564
 C        -2.407397        -0.050039         1.659897
 C        -1.465720        -1.338210         1.639252
 C        -0.639192        -1.289035         0.365669
 C         0.083357         0.059280         0.007571
 O         1.032579        -0.098863        -0.721363
 C        -0.488676         1.390946         0.629251
 C        -1.932932         1.153458         1.110004
 O        -2.153554         1.149296         2.563187
 H        -4.142269        -0.851457         2.448782
 H        -4.372411         0.497366         1.355234
 H        -4.029300        -1.144801         0.699422
 H        -0.971840        -1.321382         2.597483
 H        -2.118557        -2.165321         1.623104
 H         0.271561        -1.976977         0.395689
 H        -1.279923        -1.460948        -0.507675
 H         0.318849         1.739315         1.445206
 H        -0.490245         2.261922        -0.122681
 H        -2.694912         1.779010         0.667795
