19
Iteration:  3747charge 0 multiplicity 1
 C        -4.025135        -0.459388         2.054522
 C        -2.578596        -0.121233         1.617316
 C        -1.797483        -1.427394         1.131138
 C        -0.303649        -1.229384         0.444367
 C         0.043042         0.170115        -0.031960
 O         1.246349         0.456327        -0.196555
 C        -0.959636         1.388028         0.086462
 C        -2.053225         1.183153         1.063818
 O        -1.540832         0.616854         2.415613
 H        -4.073696        -1.450736         2.427337
 H        -4.181671         0.319477         2.862464
 H        -4.730759        -0.319780         1.309752
 H        -1.460254        -2.007126         2.025801
 H        -2.413143        -2.071737         0.628860
 H         0.536568        -1.431028         1.155535
 H        -0.175977        -1.980455        -0.424880
 H        -0.415371         2.275891         0.496129
 H        -1.342624         1.746082        -0.834496
 H        -2.776269         1.989549         1.242248
