19
Iteration:  2583
 C        -3.789203        -0.564015         1.498480
 C        -2.432980        -0.097017         1.696487
 C        -1.335263        -1.276398         1.774539
 C        -0.853803        -1.274453         0.284470
 C         0.046748         0.112140         0.023645
 O         1.057454         0.178886        -0.724430
 C        -0.461696         1.262234         0.697425
 C        -1.900158         1.058299         1.049904
 O        -2.144104         1.119915         2.480048
 H        -4.125210        -1.516801         1.886245
 H        -4.506239         0.172007         1.807600
 H        -4.065183        -0.658741         0.408477
 H        -0.498294        -1.027159         2.420613
 H        -1.721693        -2.208094         2.098432
 H        -0.322298        -2.107520        -0.067437
 H        -1.673619        -0.938322        -0.385781
 H         0.053328         1.265047         1.582539
 H        -0.329217         2.235438         0.166295
 H        -2.570756         1.646450         0.471974
