19
Iteration:  2779charge 0 multiplicity 1
 C        -3.883992        -0.362047         2.049995
 C        -2.476999        -0.105045         1.552317
 C        -1.673333        -1.425080         1.304914
 C        -0.591630        -1.227877         0.250527
 C         0.004724         0.135151         0.168463
 O         1.264813         0.244270         0.041549
 C        -0.888949         1.319906         0.087654
 C        -2.118207         1.219881         0.932193
 O        -1.578329         0.770755         2.279015
 H        -4.066966        -1.129908         2.749153
 H        -4.206456         0.519323         2.521741
 H        -4.595894        -0.483710         1.212354
 H        -1.143560        -1.704781         2.246116
 H        -2.366929        -2.187141         0.942750
 H         0.262172        -1.820228         0.372513
 H        -0.897292        -1.562836        -0.741523
 H        -0.284575         2.243412         0.342419
 H        -1.222626         1.423111        -0.992763
 H        -2.760628         2.088424         0.858289
