19
Iteration:  4493
 C        -3.899891        -0.463764         1.974795
 C        -2.424294        -0.087274         1.646477
 C        -1.457893        -1.373278         1.445343
 C        -0.667997        -1.196573         0.096501
 C         0.087410         0.116223        -0.081214
 O         1.305973         0.135425        -0.203191
 C        -0.796837         1.466722         0.157700
 C        -2.030329         1.173331         1.052108
 O        -1.984557         0.845633         2.558594
 H        -3.922582        -1.516177         2.176803
 H        -4.137124        -0.009015         2.964903
 H        -4.577876        -0.291837         1.147498
 H        -0.741115        -1.286507         2.242111
 H        -2.007068        -2.359870         1.451208
 H         0.135256        -1.999780        -0.062908
 H        -1.384705        -1.369043        -0.742694
 H        -0.073492         2.261045         0.533981
 H        -1.113669         1.777872        -0.876835
 H        -2.891378         1.758910         0.771656
