19
Iteration:  1836charge 0 multiplicity 1
 C        -3.973532        -0.438300         1.726271
 C        -2.435349        -0.021287         1.654920
 C        -1.344517        -1.143665         1.563784
 C        -0.755788        -1.307465         0.120345
 C         0.109125        -0.030452        -0.074178
 O         1.257728        -0.017545        -0.458787
 C        -0.534537         1.173210         0.561481
 C        -2.027858         1.225015         1.079014
 O        -2.146385         1.131681         2.510688
 H        -4.053147        -1.331471         2.371368
 H        -4.668907         0.344109         2.056358
 H        -4.180328        -0.817734         0.730128
 H        -0.525022        -0.775915         2.275167
 H        -1.959963        -2.125844         1.820624
 H        -0.136400        -2.212317        -0.017606
 H        -1.557549        -1.417948        -0.699752
 H         0.062553         1.333431         1.447573
 H        -0.339367         2.029333        -0.156052
 H        -2.730483         1.952582         0.544906
