19
Iteration:  4642charge 0 multiplicity 1
 C        -3.818720        -0.539021         1.678255
 C        -2.383750        -0.160051         1.758442
 C        -1.392711        -1.307701         1.628904
 C        -0.505075        -1.230721         0.272770
 C         0.142741         0.118978         0.007171
 O         1.074042         0.064175        -0.765270
 C        -0.668419         1.330150         0.619421
 C        -2.075352         1.078281         1.029470
 O        -2.154245         1.159090         2.510103
 H        -4.106468        -0.714411         0.635791
 H        -4.102031        -1.340712         2.464889
 H        -4.464765         0.330536         2.056039
 H        -0.857323        -1.293674         2.554923
 H        -2.088512        -2.163843         1.432359
 H         0.401353        -1.924493         0.311316
 H        -1.261495        -1.289361        -0.485081
 H        -0.240667         1.818755         1.589735
 H        -0.640229         2.139596        -0.082719
 H        -2.800124         1.675249         0.446574
