19
Iteration:  1897
 C        -3.880470        -0.390954         1.846464
 C        -2.447113        -0.111788         1.640909
 C        -1.646506        -1.336106         1.361688
 C        -0.742304        -1.158688         0.239938
 C         0.140801         0.062792         0.123845
 O         1.307476         0.024872        -0.151861
 C        -0.761960         1.342885         0.118373
 C        -2.026035         1.172241         1.059328
 O        -1.782012         0.983239         2.495860
 H        -4.165855        -0.756678         2.877405
 H        -4.488411         0.488335         1.633096
 H        -4.181576        -1.205256         1.055338
 H        -1.148527        -1.730037         2.251991
 H        -2.341815        -2.139503         1.189574
 H        -0.271428        -2.082661        -0.048598
 H        -1.419045        -0.922727        -0.583642
 H        -0.015286         2.190535         0.349336
 H        -1.071804         1.485309        -0.894525
 H        -2.778449         1.864308         0.779048
