19
Iteration:  4170
 C        -3.991659        -0.404869         2.010266
 C        -2.542839        -0.168653         1.598352
 C        -1.782339        -1.473501         1.011741
 C        -0.293068        -1.227985         0.669818
 C         0.125203         0.166205         0.111377
 O         1.074004         0.415328        -0.629404
 C        -0.747246         1.378672         0.364700
 C        -2.075818         1.186168         1.110747
 O        -1.661285         0.683000         2.471308
 H        -4.207718        -1.448656         2.327083
 H        -4.110546         0.291998         2.841683
 H        -4.629260        -0.123467         1.202195
 H        -1.885276        -2.240163         1.787036
 H        -2.423262        -1.799003         0.142389
 H         0.325745        -1.346396         1.553569
 H         0.121365        -1.997919        -0.050956
 H        -0.049379         2.156304         0.656709
 H        -1.085282         1.671589        -0.714432
 H        -2.814132         2.076985         1.037030
