19
Iteration:  3412charge 0 multiplicity 1
 C        -3.941503        -0.547157         1.678284
 C        -2.523932        -0.230048         1.565285
 C        -1.390006        -1.235936         1.652336
 C        -0.525115        -1.304041         0.295190
 C         0.065937         0.103276        -0.058151
 O         1.047994         0.367004        -0.755324
 C        -0.488064         1.315336         0.631976
 C        -1.924866         1.108328         1.103391
 O        -2.145161         0.945309         2.580303
 H        -4.312780        -0.558161         2.689806
 H        -4.571152         0.143653         0.943674
 H        -4.178620        -1.554630         1.286080
 H        -0.678257        -0.922991         2.408400
 H        -1.912961        -2.236042         1.832853
 H         0.233884        -2.113489         0.377196
 H        -1.255626        -1.458393        -0.650914
 H         0.062378         1.485061         1.557312
 H        -0.372709         2.163016        -0.009615
 H        -2.592199         1.831278         0.719735
