19
Iteration:  2432
 C        -3.977920        -0.493107         1.431711
 C        -2.504873        -0.062016         1.527677
 C        -1.634253        -1.221757         1.643106
 C        -0.296900        -1.227793         0.734024
 C         0.254580         0.066396         0.099391
 O         0.626430         0.124887        -1.079961
 C        -0.347133         1.370662         0.784279
 C        -1.823329         1.268430         1.120762
 O        -2.055513         0.801842         2.498683
 H        -4.133355        -1.515702         1.748471
 H        -4.779121         0.052756         2.033310
 H        -4.326364        -0.373726         0.422014
 H        -1.360608        -1.290470         2.695075
 H        -2.067425        -2.172052         1.448796
 H         0.416848        -1.712840         1.437162
 H        -0.408145        -1.902714        -0.123593
 H         0.277487         1.803222         1.672375
 H        -0.224977         2.164949        -0.068712
 H        -2.443029         1.994936         0.706272
