19
Iteration:     7
 C        -3.896456        -0.087624         2.055272
 C        -2.496876        -0.032238         1.563774
 C        -1.778726        -1.403339         1.294542
 C        -0.743539        -1.289946         0.117307
 C         0.104794        -0.005034         0.121728
 O         1.305037        -0.004564         0.195580
 C        -0.777071         1.235670         0.050373
 C        -1.943715         1.193717         0.974051
 O        -1.667694         0.960060         2.288234
 H        -3.925380        -0.919931         2.786025
 H        -4.222661         0.961055         2.409309
 H        -4.488143        -0.561679         1.212994
 H        -1.289717        -1.675719         2.244590
 H        -2.463471        -2.233822         1.055548
 H        -0.206604        -2.257492        -0.002336
 H        -1.228774        -1.187051        -0.906722
 H        -0.114281         2.057248         0.349646
 H        -1.195957         1.328801        -0.977419
 H        -2.521166         2.148065         0.762101
