19
Iteration:  3669charge 0 multiplicity 1
 C        -3.752603        -0.478587         2.365729
 C        -2.489063        -0.156580         1.536296
 C        -1.761506        -1.408023         1.005080
 C        -0.576123        -1.248423         0.121680
 C         0.012736         0.237267        -0.008361
 O         1.166896         0.461053         0.441952
 C        -0.975177         1.337745        -0.206560
 C        -2.014431         1.126367         0.970936
 O        -1.517413         0.713705         2.296688
 H        -3.485244        -0.527569         3.411065
 H        -4.629770         0.230238         2.345961
 H        -4.141117        -1.435317         1.994129
 H        -1.426402        -2.102362         1.826516
 H        -2.566075        -1.847068         0.495110
 H         0.283702        -1.842633         0.450798
 H        -1.007236        -1.529731        -0.923899
 H        -0.540508         2.251449         0.099720
 H        -1.346294         1.406359        -1.227160
 H        -2.697039         1.976068         1.090595
