19
Iteration:  4401
 C        -3.883452        -0.271190         2.166540
 C        -2.497415        -0.199694         1.552487
 C        -1.730499        -1.411129         1.143477
 C        -0.547667        -1.303042         0.131527
 C         0.103229         0.159060         0.169996
 O         1.283474         0.424047         0.038339
 C        -1.009085         1.315951         0.028390
 C        -2.089689         1.158147         1.091940
 O        -1.531000         0.651493         2.309006
 H        -3.911445        -0.073685         3.258146
 H        -4.437652         0.541995         1.825962
 H        -4.492987        -1.161825         2.030256
 H        -1.177048        -1.667341         2.095807
 H        -2.407228        -2.253477         0.863357
 H         0.218142        -2.056424         0.308923
 H        -0.956209        -1.308774        -0.930325
 H        -0.504030         2.306319         0.165244
 H        -1.541576         1.363608        -0.909068
 H        -2.808127         2.007134         1.112933
