19
Iteration:  4916charge 0 multiplicity 1
 C        -3.824677        -0.554110         1.303429
 C        -2.370593        -0.141452         1.594223
 C        -1.281519        -1.242454         1.816350
 C        -0.460837        -1.306286         0.493262
 C         0.005988         0.142676         0.035813
 O         0.593157         0.185725        -1.052127
 C        -0.371856         1.368364         0.803539
 C        -1.889049         1.161683         1.185258
 O        -2.187451         0.979616         2.601905
 H        -4.408274        -0.299452         2.181222
 H        -4.318397         0.210772         0.555191
 H        -3.983618        -1.575793         0.961350
 H        -0.550722        -1.003986         2.607083
 H        -1.737600        -2.287586         2.060044
 H         0.505298        -1.865007         0.697947
 H        -1.053820        -1.754288        -0.312947
 H         0.383567         1.272582         1.704599
 H        -0.235789         2.136126         0.139321
 H        -2.662780         1.673270         0.596813
