19
Iteration:  4596charge 0 multiplicity 1
 C        -3.944015        -0.509317         1.750474
 C        -2.490172        -0.127363         1.540600
 C        -1.349834        -1.173665         1.608418
 C        -0.596867        -1.262989         0.298778
 C         0.070807         0.047544        -0.022867
 O         1.184681         0.147355        -0.600510
 C        -0.696975         1.379601         0.502817
 C        -2.075732         1.190175         1.086741
 O        -1.978350         0.877490         2.499899
 H        -4.032048        -1.586044         1.357587
 H        -4.075850        -0.528592         2.826123
 H        -4.846704         0.058377         1.395447
 H        -0.612565        -0.813444         2.367035
 H        -1.775112        -2.090404         1.881079
 H         0.138015        -2.037694         0.355582
 H        -1.338922        -1.363947        -0.507918
 H         0.039948         1.816083         1.142100
 H        -0.762799         2.002814        -0.469533
 H        -2.896442         1.902557         0.857390
