19
Iteration:  4199charge 0 multiplicity 1
 C        -3.906625        -0.364527         2.134328
 C        -2.572682        -0.156121         1.548446
 C        -1.804759        -1.380312         1.005554
 C        -0.306369        -1.131571         0.574125
 C         0.084547         0.201190         0.004918
 O         1.254416         0.362270        -0.389265
 C        -0.927257         1.339754         0.062327
 C        -2.018756         1.186687         1.153528
 O        -1.754899         0.548681         2.525551
 H        -4.091436        -1.387065         2.280730
 H        -3.883441         0.235606         3.112843
 H        -4.683698         0.158283         1.512110
 H        -1.692336        -2.180199         1.866799
 H        -2.337459        -1.882216         0.219130
 H         0.450944        -1.440156         1.345254
 H         0.111379        -1.846039        -0.159510
 H        -0.203900         2.116058         0.246180
 H        -1.490688         1.468464        -0.865338
 H        -2.597317         2.124136         1.243544
