19
Iteration:  2281charge 0 multiplicity 1
 C        -4.039348        -0.240872         1.706082
 C        -2.528561        -0.136149         1.423853
 C        -1.668390        -1.212769         0.936535
 C        -0.130500        -0.928530         1.165759
 C         0.159669         0.106083         0.137922
 O         0.670427        -0.142849        -0.938210
 C        -0.497776         1.429857         0.542116
 C        -1.865866         1.212647         1.219549
 O        -1.880424         0.516539         2.526750
 H        -4.292949        -0.666261         2.697649
 H        -4.641056         0.735749         1.585527
 H        -4.546540        -0.928235         1.008502
 H        -1.822340        -2.222735         1.449947
 H        -1.704708        -1.254549        -0.183121
 H         0.077096        -0.640863         2.251865
 H         0.452782        -1.822965         0.912134
 H         0.113153         2.138940         1.201907
 H        -0.776083         2.059800        -0.308206
 H        -2.514581         2.119062         1.151447
