19
Iteration:  2141charge 0 multiplicity 1
 C        -3.953028        -0.305774         1.993932
 C        -2.438497        -0.092456         1.711329
 C        -1.927952        -1.422638         0.991505
 C        -0.479064        -1.240337         0.476903
 C         0.119827         0.099219         0.239589
 O         1.262665         0.204128        -0.194923
 C        -0.878343         1.283475         0.093996
 C        -2.022597         1.178876         1.060857
 O        -1.551930         0.886071         2.389403
 H        -4.188980        -1.178759         2.654062
 H        -4.485992         0.643959         2.428033
 H        -4.512593        -0.576833         1.076222
 H        -1.911986        -2.232718         1.724174
 H        -2.665019        -1.473085         0.182175
 H         0.218808        -1.861346         1.058193
 H        -0.353864        -1.750240        -0.474477
 H        -0.304487         2.227731         0.132751
 H        -1.113629         1.084169        -0.907795
 H        -2.930642         1.959227         0.993152
