19
Iteration:  3160charge 0 multiplicity 1
 C        -3.932180        -0.327160         1.340714
 C        -2.406371        -0.083233         1.403330
 C        -1.489223        -1.366577         1.189807
 C        -0.002451        -0.971242         1.141535
 C         0.014513         0.083858         0.178857
 O         0.361545        -0.083201        -0.996175
 C        -0.527767         1.510016         0.596922
 C        -1.853106         1.324038         1.344207
 O        -1.963559         0.557753         2.607850
 H        -4.139151        -0.999645         2.104966
 H        -4.362100         0.707891         1.312115
 H        -4.073267        -0.737105         0.333814
 H        -1.567721        -2.125861         1.952266
 H        -1.648262        -1.826942         0.129711
 H         0.360510        -0.843771         2.129155
 H         0.571898        -1.795897         0.668297
 H         0.317118         2.037272         1.127298
 H        -0.686237         2.181490        -0.298604
 H        -2.664224         2.041214         1.184066
