19
Iteration:     6
 C        -3.901413        -0.087754         2.044028
 C        -2.490621        -0.028614         1.564748
 C        -1.775812        -1.391667         1.294465
 C        -0.744779        -1.288802         0.122920
 C         0.104929        -0.006932         0.123744
 O         1.298080        -0.006000         0.184776
 C        -0.774182         1.238632         0.050192
 C        -1.945664         1.198935         0.975662
 O        -1.668605         0.949761         2.294644
 H        -3.939214        -0.909594         2.805637
 H        -4.218598         0.923247         2.368654
 H        -4.476628        -0.560543         1.230193
 H        -1.273550        -1.678482         2.271935
 H        -2.488685        -2.238578         1.052332
 H        -0.160261        -2.282486         0.026546
 H        -1.222072        -1.216395        -0.882517
 H        -0.091928         2.082705         0.349247
 H        -1.181566         1.330749        -0.978373
 H        -2.527008         2.125939         0.775201
