19
Iteration:  3107
 C        -4.083632        -0.390330         1.589964
 C        -2.492202        -0.100062         1.524388
 C        -1.654977        -1.311354         0.997976
 C        -0.103132        -0.968605         1.130476
 C         0.065949         0.077769         0.101025
 O         0.774749        -0.041976        -0.919511
 C        -0.637074         1.467688         0.483466
 C        -1.892969         1.264762         1.282692
 O        -1.828032         0.574964         2.543688
 H        -4.311200        -0.601858         2.581598
 H        -4.454981         0.680216         1.427989
 H        -4.335910        -1.125515         0.856650
 H        -1.804468        -2.228359         1.516937
 H        -1.906032        -1.447825        -0.059910
 H         0.004262        -0.612106         2.127309
 H         0.620330        -1.745118         0.838187
 H         0.122533         2.031461         1.190581
 H        -0.874739         2.152159        -0.357308
 H        -2.494487         2.155086         1.340070
