19
Iteration:  1861
 C        -3.917582        -0.345430         1.837138
 C        -2.427565        -0.113679         1.579366
 C        -1.410056        -1.203031         1.455796
 C        -0.751666        -1.335194         0.129908
 C         0.048569        -0.018836        -0.002528
 O         1.232933         0.017854        -0.256942
 C        -0.598931         1.349434         0.457875
 C        -2.050089         1.198002         0.986151
 O        -1.998962         0.976667         2.430816
 H        -4.081311        -0.962496         2.707275
 H        -4.349859         0.739881         2.056256
 H        -4.440827        -0.777281         1.003340
 H        -0.623671        -0.769726         2.190067
 H        -1.835030        -2.269608         1.785059
 H        -0.092897        -2.245927         0.015687
 H        -1.502750        -1.400584        -0.676662
 H        -0.021945         1.746611         1.275245
 H        -0.514301         2.026532        -0.402302
 H        -2.846342         1.905200         0.722039
