19
Iteration:  1281charge 0 multiplicity 1
 C        -3.695772        -0.199592         2.311499
 C        -2.430701        -0.045960         1.521350
 C        -1.963226        -1.284186         0.800901
 C        -0.527354        -1.235527         0.360627
 C         0.041312         0.144222         0.090033
 O         1.157655         0.338311         0.466017
 C        -1.090767         1.165382        -0.312056
 C        -1.928142         1.228027         0.993466
 O        -1.453102         0.522698         2.312109
 H        -3.767905        -1.088883         3.076477
 H        -3.887980         0.720566         2.716015
 H        -4.676097        -0.290018         1.708723
 H        -2.145720        -2.181494         1.447798
 H        -2.706040        -1.389184         0.006913
 H         0.108486        -1.690639         1.226187
 H        -0.438777        -1.815961        -0.515879
 H        -0.577144         2.080976        -0.615196
 H        -1.517140         0.739562        -1.173885
 H        -2.363244         2.154017         1.285088
