19
Iteration:  4634charge 0 multiplicity 1
 C        -3.813706        -0.490736         1.707872
 C        -2.376896        -0.109723         1.801530
 C        -1.403854        -1.336072         1.581299
 C        -0.554039        -1.283074         0.305598
 C         0.077912         0.106409         0.024098
 O         1.089333         0.156388        -0.727267
 C        -0.599058         1.339145         0.577200
 C        -2.072760         1.092135         1.027555
 O        -2.169378         1.118901         2.472369
 H        -4.081402        -0.941680         0.781965
 H        -3.915339        -1.300116         2.480878
 H        -4.412953         0.392647         1.848222
 H        -0.753614        -1.463742         2.439106
 H        -2.007009        -2.334475         1.547019
 H         0.225554        -2.095290         0.213748
 H        -1.160278        -1.619481        -0.553623
 H        -0.119880         1.832054         1.491531
 H        -0.545869         2.093447        -0.153781
 H        -2.902033         1.512795         0.458423
