19
Iteration:  2424charge 0 multiplicity 1
 C        -3.972423        -0.437907         1.419630
 C        -2.490337        -0.038807         1.516520
 C        -1.550085        -1.287960         1.562940
 C        -0.255727        -1.272273         0.751514
 C         0.173734         0.115988         0.161601
 O         0.567907         0.095590        -1.024513
 C        -0.322259         1.408380         0.746425
 C        -1.843413         1.176691         1.119194
 O        -2.087837         0.865897         2.514283
 H        -3.989807        -1.513734         1.616924
 H        -4.707247         0.078830         2.224785
 H        -4.234714        -0.206892         0.405692
 H        -1.303980        -1.315544         2.677620
 H        -2.172548        -2.198728         1.270748
 H         0.642019        -1.865937         1.253968
 H        -0.247959        -1.925783        -0.159247
 H         0.243196         1.757518         1.523115
 H        -0.132039         2.080397        -0.037575
 H        -2.529546         2.043858         0.819570
