19
Iteration:   686charge 0 multiplicity 1
 C        -3.850422        -0.121572         2.190938
 C        -2.429895        -0.145907         1.573741
 C        -1.703689        -1.453867         1.215328
 C        -0.721316        -1.201056         0.049559
 C         0.022461         0.129732         0.114408
 O         1.205261         0.211904         0.372497
 C        -0.875402         1.273111        -0.136591
 C        -1.943656         1.074182         0.942920
 O        -1.573894         0.792618         2.269003
 H        -3.901132        -0.753961         3.112568
 H        -4.092330         0.862478         2.469507
 H        -4.621586        -0.589252         1.542355
 H        -1.247707        -1.884281         2.129988
 H        -2.423211        -2.178648         0.865594
 H         0.011567        -2.082165         0.056862
 H        -1.266540        -1.259227        -0.933221
 H        -0.339506         2.279293         0.175092
 H        -1.306185         1.304689        -1.145143
 H        -2.728216         1.856591         0.859028
