19
Iteration:  3017
 C        -3.968870        -0.264650         1.937026
 C        -2.496540        -0.156497         1.616201
 C        -1.724173        -1.430396         1.272365
 C        -0.401827        -1.209838         0.478153
 C         0.126343         0.109360         0.060235
 O         1.226611         0.266127        -0.367350
 C        -0.779091         1.381280         0.217330
 C        -1.987408         1.147288         1.038958
 O        -1.874135         0.729692         2.470446
 H        -4.257333        -1.266643         2.312049
 H        -4.289254         0.537302         2.629567
 H        -4.592560        -0.092078         1.004737
 H        -1.382146        -1.959205         2.138845
 H        -2.362839        -2.056449         0.577646
 H         0.435672        -1.753822         0.868187
 H        -0.512370        -1.931142        -0.383372
 H        -0.044762         2.288273         0.460350
 H        -0.995574         1.681012        -0.887260
 H        -2.708284         1.985216         0.974803
