19
Iteration:  3959charge 0 multiplicity 1
 C        -3.857942        -0.439341         1.190041
 C        -2.405261        -0.175648         1.541039
 C        -1.469735        -1.388657         1.474659
 C        -0.004523        -1.150058         0.884719
 C        -0.020016         0.136814         0.114813
 O         0.286995         0.277225        -1.117547
 C        -0.490720         1.360264         0.689342
 C        -1.895827         1.191892         1.349442
 O        -1.910493         0.767843         2.674142
 H        -4.231558        -1.420918         1.260593
 H        -4.638554         0.145737         1.597025
 H        -3.954882        -0.360907         0.084323
 H        -1.471299        -1.798259         2.482030
 H        -1.989032        -2.134140         0.960091
 H         0.734477        -1.009296         1.734014
 H         0.340310        -1.959874         0.242833
 H         0.152639         1.585427         1.581775
 H        -0.399971         2.081785        -0.178853
 H        -2.718846         2.013024         1.173446
