19
Iteration:  3031charge 0 multiplicity 1
 C        -3.987652        -0.250505         1.911048
 C        -2.465528        -0.185398         1.594968
 C        -1.715466        -1.411011         1.225457
 C        -0.365314        -1.259650         0.469004
 C         0.134893         0.161627         0.034979
 O         1.262691         0.234741        -0.479490
 C        -0.745605         1.274252         0.350327
 C        -2.112426         1.108759         1.078519
 O        -1.893442         0.848854         2.474911
 H        -4.237117        -1.128872         2.468795
 H        -4.113202         0.615665         2.728737
 H        -4.467363        -0.130257         0.932377
 H        -1.614642        -2.024506         2.115717
 H        -2.397566        -1.979634         0.624459
 H         0.420593        -1.399859         1.200957
 H        -0.185430        -1.856731        -0.452236
 H        -0.194134         1.966257         1.044188
 H        -0.984776         1.832069        -0.575555
 H        -2.897830         1.795052         0.792571
