19
Iteration:  3632charge 0 multiplicity 1
 C        -3.652983        -0.302896         2.277081
 C        -2.393590        -0.175999         1.517054
 C        -1.669274        -1.449366         1.010323
 C        -0.624958        -1.221828        -0.074335
 C        -0.043513         0.170567         0.225467
 O         1.109070         0.454881         0.607153
 C        -1.173161         1.249091        -0.093794
 C        -2.126839         1.143679         1.005006
 O        -1.364658         0.724424         2.137439
 H        -3.393995        -0.265556         3.403576
 H        -4.332773         0.460517         1.937652
 H        -4.105904        -1.390500         2.165119
 H        -1.252010        -1.998596         1.887494
 H        -2.341247        -2.261590         0.480573
 H         0.067095        -2.076894        -0.087881
 H        -1.068701        -1.277590        -1.069098
 H        -0.776706         2.308078        -0.048415
 H        -1.389075         1.073953        -1.234112
 H        -2.942471         1.893956         1.056301
