19
Iteration:  1780charge 0 multiplicity 1
 C        -3.859783        -0.444457         1.302802
 C        -2.356110        -0.046831         1.658519
 C        -1.419136        -1.170582         1.775352
 C        -0.622071        -1.370387         0.469678
 C         0.093697        -0.002634         0.091479
 O         0.836922        -0.021416        -0.840827
 C        -0.442050         1.336863         0.703315
 C        -1.890948         1.260008         1.120560
 O        -2.142145         1.046034         2.505522
 H        -4.423988        -0.804024         2.194081
 H        -4.326635         0.380292         0.938306
 H        -3.823643        -1.202781         0.477318
 H        -0.709662        -0.987913         2.611837
 H        -1.908934        -2.151308         2.136007
 H         0.114859        -2.173080         0.482256
 H        -1.213367        -1.529031        -0.486970
 H         0.142629         1.463352         1.634638
 H        -0.281120         2.180166         0.036731
 H        -2.600007         1.973215         0.655076
