19
Iteration:  3214charge 0 multiplicity 1
 C        -3.825729        -0.433455         1.357928
 C        -2.419463        -0.126771         1.500714
 C        -1.465760        -1.381466         1.507182
 C        -0.024937        -1.215394         0.917573
 C         0.036841         0.083079         0.055722
 O         0.354957         0.159325        -1.091958
 C        -0.347393         1.355703         0.840905
 C        -1.788239         1.170205         1.152106
 O        -2.251175         0.963681         2.539523
 H        -4.048037        -1.561280         1.450841
 H        -4.458389         0.253861         2.039848
 H        -4.135553        -0.046346         0.348370
 H        -1.515681        -2.073339         2.351314
 H        -1.963646        -1.992324         0.621894
 H         0.593431        -1.143425         1.802234
 H         0.394508        -2.067066         0.315351
 H         0.318293         1.336818         1.681827
 H        -0.236999         2.313259         0.298109
 H        -2.481835         1.878699         0.708636
