19
Iteration:  4414charge 0 multiplicity 1
 C        -3.863034        -0.243024         2.179624
 C        -2.512378        -0.196247         1.428872
 C        -1.611227        -1.500021         1.229353
 C        -0.532316        -1.207137         0.163403
 C         0.000820         0.192867         0.067309
 O         1.208873         0.318286         0.036225
 C        -0.975571         1.417170         0.022427
 C        -1.984006         1.138124         1.091342
 O        -1.663178         0.662208         2.380890
 H        -3.535008        -0.225467         3.163118
 H        -4.492304         0.587086         1.899206
 H        -4.382818        -1.169303         1.912169
 H        -1.274578        -1.787906         2.208006
 H        -2.237971        -2.412860         0.880456
 H         0.374264        -1.900823         0.226297
 H        -0.927928        -1.538740        -0.836393
 H        -0.375329         2.403629         0.271504
 H        -1.307838         1.477864        -1.028983
 H        -2.683900         1.942109         1.234140
