19
Iteration:  2023charge 0 multiplicity 1
 C        -3.674321        -0.236035         2.417446
 C        -2.502557        -0.014314         1.422590
 C        -1.993748        -1.351622         0.809773
 C        -0.483989        -1.416963         0.330335
 C         0.026579         0.002693         0.065831
 O         1.109956         0.384197         0.498995
 C        -0.975170         1.133702        -0.285729
 C        -1.907787         1.248824         0.977274
 O        -1.534272         0.809847         2.300383
 H        -3.411625        -1.137901         2.987459
 H        -3.697810         0.728762         3.096178
 H        -4.627206        -0.442916         1.952320
 H        -2.069755        -2.059671         1.623230
 H        -2.600878        -1.477547        -0.113749
 H         0.278161        -1.880443         1.000078
 H        -0.352125        -2.088190        -0.596766
 H        -0.470572         2.062500        -0.345495
 H        -1.576356         0.820230        -1.259815
 H        -2.394692         2.266593         0.818701
