19
Iteration:  3907charge 0 multiplicity 1
 C        -3.944585        -0.447026         1.470701
 C        -2.450824        -0.181997         1.596447
 C        -1.477979        -1.401456         1.179451
 C        -0.033724        -1.036658         0.989302
 C         0.082948         0.197475         0.008143
 O         0.444678         0.199870        -1.149415
 C        -0.425707         1.408293         0.703480
 C        -1.824716         1.111605         1.258334
 O        -2.084531         0.722550         2.692744
 H        -4.326778        -0.949566         2.375596
 H        -4.592123         0.543658         1.365582
 H        -4.318374        -1.191929         0.692088
 H        -1.565529        -2.150562         1.955172
 H        -2.008629        -1.864557         0.212887
 H         0.315703        -0.748818         1.984979
 H         0.655715        -1.782760         0.578315
 H         0.281098         1.672292         1.453250
 H        -0.605723         2.247771        -0.089319
 H        -2.579890         1.943899         1.074447
