19
Iteration:  4668
 C        -3.947652        -0.594789         1.619807
 C        -2.484911        -0.127800         1.690412
 C        -1.357238        -1.190870         1.739745
 C        -0.554605        -1.220733         0.413407
 C         0.105597         0.097606        -0.060869
 O         1.049729         0.093049        -0.816624
 C        -0.475743         1.381026         0.508050
 C        -1.980433         1.205549         1.091946
 O        -2.176234         0.949510         2.511533
 H        -4.415537        -0.627739         0.642366
 H        -3.948911        -1.588188         2.072031
 H        -4.553012        -0.117586         2.345926
 H        -0.764824        -0.820760         2.593161
 H        -1.735653        -2.245806         1.934378
 H         0.233157        -1.950478         0.504455
 H        -1.355928        -1.420290        -0.298920
 H         0.077537         1.679862         1.424108
 H        -0.338821         2.207455        -0.222292
 H        -2.698377         1.890521         0.624966
