19
Iteration:  4684
 C        -3.896530        -0.639399         1.582314
 C        -2.437905        -0.088320         1.552586
 C        -1.367537        -1.103908         1.805183
 C        -0.610485        -1.345231         0.419438
 C         0.045563         0.041597        -0.064517
 O         0.963467         0.202743        -0.791109
 C        -0.501198         1.299550         0.591701
 C        -1.865668         1.186494         1.072548
 O        -2.189745         0.964080         2.565521
 H        -4.296592        -0.309988         0.577159
 H        -3.873522        -1.724397         1.871291
 H        -4.497117         0.101151         2.215104
 H        -0.503447        -0.624331         2.386944
 H        -1.840461        -1.992237         2.149015
 H         0.305991        -2.011934         0.478744
 H        -1.057924        -1.880158        -0.482897
 H         0.295056         1.804687         1.171764
 H        -0.597445         2.078160        -0.270596
 H        -2.580714         1.967302         0.776991
