19
Iteration:  4669charge 0 multiplicity 1
 C        -3.944474        -0.596105         1.621772
 C        -2.485119        -0.120307         1.688340
 C        -1.363621        -1.185294         1.750125
 C        -0.554219        -1.228289         0.404147
 C         0.096859         0.091239        -0.058499
 O         1.049536         0.101675        -0.817988
 C        -0.471836         1.384601         0.514418
 C        -1.968528         1.204364         1.082316
 O        -2.178989         0.938911         2.514028
 H        -4.422100        -0.650069         0.627945
 H        -3.970767        -1.581776         2.033987
 H        -4.547381        -0.128476         2.351540
 H        -0.764927        -0.811891         2.638069
 H        -1.730432        -2.209120         1.992783
 H         0.229533        -1.923888         0.510951
 H        -1.362783        -1.461544        -0.319748
 H         0.083480         1.666726         1.397398
 H        -0.337304         2.215160        -0.274630
 H        -2.679105         1.920556         0.642476
