19
Iteration:  2996
 C        -3.972733        -0.366737         1.873345
 C        -2.557229        -0.084026         1.483309
 C        -1.760373        -1.421978         1.307497
 C        -0.493364        -1.247079         0.432989
 C         0.131600         0.154085         0.137110
 O         1.263948         0.276711        -0.230622
 C        -0.922725         1.317497         0.092375
 C        -1.961522         1.239532         1.186433
 O        -1.595209         0.730721         2.431468
 H        -4.195626        -1.344426         2.248931
 H        -4.481943         0.420925         2.495178
 H        -4.747306        -0.316096         1.039667
 H        -1.563915        -1.712266         2.313686
 H        -2.470340        -2.139972         0.832922
 H         0.269839        -1.873824         0.805496
 H        -0.563337        -1.619206        -0.660109
 H        -0.350801         2.353985         0.163056
 H        -1.304221         1.230710        -0.977210
 H        -2.690184         2.072572         1.159856
