19
Iteration:   503charge 0 multiplicity 1
 C        -3.735067        -0.486781         1.247295
 C        -2.346370        -0.081821         1.613124
 C        -1.382807        -1.169445         1.850359
 C        -0.693095        -1.323265         0.454654
 C         0.005720        -0.013520         0.012220
 O         0.693945         0.094318        -0.981308
 C        -0.267902         1.159661         0.963765
 C        -1.754686         1.207154         1.137177
 O        -2.301388         1.167204         2.493786
 H        -4.177346        -1.298613         1.928393
 H        -4.325492         0.335900         1.291595
 H        -3.558597        -0.944822         0.181146
 H        -0.647340        -0.854272         2.645728
 H        -1.918997        -2.067208         2.259736
 H         0.073463        -2.129236         0.350246
 H        -1.411090        -1.463597        -0.283869
 H         0.301777         1.137287         1.849065
 H        -0.066414         2.079035         0.503425
 H        -2.341871         1.811257         0.500501
