19
Iteration:  1005charge 0 multiplicity 1
 C        -3.801033        -0.274329         1.049457
 C        -2.369607        -0.065233         1.399239
 C        -1.544050        -1.461659         1.381532
 C        -0.033225        -1.022591         1.104909
 C         0.034827         0.091256         0.034913
 O        -0.016943        -0.032241        -1.179978
 C        -0.259629         1.442151         0.893012
 C        -1.669193         1.335556         1.393996
 O        -2.047714         0.634346         2.646074
 H        -4.227491        -1.110170         1.590743
 H        -4.441336         0.708244         1.209817
 H        -3.922230        -0.665505         0.039299
 H        -1.732314        -1.891268         2.490547
 H        -1.938682        -2.378331         0.773730
 H         0.462967        -0.658914         2.010433
 H         0.544182        -2.005864         0.841979
 H         0.485964         1.567666         1.743267
 H        -0.120159         2.266930         0.322283
 H        -2.268170         2.265286         1.196757
