19
Iteration:  1893
 C        -3.877270        -0.404758         1.839511
 C        -2.459274        -0.149681         1.644916
 C        -1.627610        -1.373415         1.381266
 C        -0.735063        -1.143803         0.229161
 C         0.113016         0.055074         0.086947
 O         1.290856         0.021680        -0.157978
 C        -0.721591         1.375107         0.154674
 C        -1.979415         1.169119         1.030958
 O        -1.815353         1.000566         2.489753
 H        -4.142485        -0.772842         2.800028
 H        -4.506994         0.539824         1.656791
 H        -4.251418        -1.111163         1.168136
 H        -1.087987        -1.606456         2.388753
 H        -2.430629        -2.206815         1.270486
 H        -0.226964        -2.117317         0.017670
 H        -1.539686        -0.842047        -0.497998
 H        -0.074933         2.158973         0.384021
 H        -0.986486         1.608034        -0.910433
 H        -2.751695         1.945499         0.801001
