19
Iteration:  2307charge 0 multiplicity 1
 C        -4.035971        -0.246764         1.535677
 C        -2.443756        -0.174189         1.479085
 C        -1.626101        -1.368977         0.948571
 C        -0.086681        -1.097740         1.193782
 C         0.116516         0.124977         0.218144
 O         0.456354        -0.031590        -0.944667
 C        -0.493915         1.398182         0.581678
 C        -1.883247         1.206172         1.210302
 O        -1.755115         0.720879         2.541213
 H        -4.452483        -0.585695         2.496462
 H        -4.556878         0.709596         1.294377
 H        -4.419179        -0.935196         0.761796
 H        -1.933017        -2.311848         1.391007
 H        -1.821722        -1.293491        -0.144048
 H        -0.145148        -0.836883         2.223763
 H         0.704620        -1.836129         1.067923
 H         0.183483         2.054400         1.388940
 H        -0.613283         2.072454        -0.269778
 H        -2.594160         2.101767         1.008012
