19
Iteration:  4715charge 0 multiplicity 1
 C        -3.809992        -0.550219         1.389314
 C        -2.365667        -0.037804         1.748851
 C        -1.224102        -1.211214         1.799479
 C        -0.484468        -1.359186         0.406136
 C         0.010314         0.038715        -0.034059
 O         0.909290         0.058908        -0.895638
 C        -0.603430         1.306819         0.625508
 C        -2.070961         1.227332         1.134950
 O        -2.193145         1.061362         2.603158
 H        -3.793339        -0.246371         0.309418
 H        -4.067754        -1.572475         1.506820
 H        -4.582485        -0.043702         1.987219
 H        -0.385481        -0.982798         2.589308
 H        -1.741499        -2.124780         2.026808
 H         0.395133        -1.958488         0.386787
 H        -1.225660        -1.422886        -0.440888
 H        -0.112499         1.535349         1.540896
 H        -0.408116         2.336795         0.071781
 H        -2.828834         1.867997         0.635356
