19
Iteration:  1772charge 0 multiplicity 1
 C        -3.838831        -0.379636         1.280323
 C        -2.417549        -0.080968         1.632859
 C        -1.405644        -1.203975         1.791539
 C        -0.579941        -1.424115         0.487507
 C         0.028791        -0.015082         0.034058
 O         0.851773         0.046877        -0.894049
 C        -0.420103         1.281421         0.711957
 C        -1.856712         1.247027         1.172502
 O        -2.164312         1.075500         2.538795
 H        -4.501425        -0.781634         2.078685
 H        -4.437322         0.405104         0.683920
 H        -3.831652        -1.209038         0.579099
 H        -0.636112        -0.801154         2.539690
 H        -2.018286        -2.050167         2.328641
 H         0.285433        -2.019907         0.810574
 H        -1.204635        -1.823441        -0.294881
 H         0.137160         1.456137         1.590492
 H        -0.121622         2.186920         0.120900
 H        -2.661665         1.870468         0.689415
