19
Iteration:  3585charge 0 multiplicity 1
 C        -3.666905        -0.468323         2.297710
 C        -2.404540        -0.177727         1.525009
 C        -1.699064        -1.466650         1.105421
 C        -0.617427        -1.188979         0.003653
 C         0.017266         0.194396         0.051592
 O         1.132666         0.341742         0.472176
 C        -0.981799         1.357694        -0.187126
 C        -2.054341         1.146531         0.986302
 O        -1.622678         0.824129         2.308460
 H        -3.361890        -0.755876         3.296475
 H        -4.345160         0.464136         2.342685
 H        -4.218306        -1.273541         1.937664
 H        -1.124639        -1.946779         1.900278
 H        -2.530900        -2.151756         0.821539
 H         0.243906        -1.854466        -0.034313
 H        -1.049686        -1.213260        -0.947167
 H        -0.332330         2.337287        -0.158341
 H        -1.556370         1.368805        -1.123853
 H        -2.846124         1.898778         0.887938
