19
Iteration:  1908charge 0 multiplicity 1
 C        -3.927460        -0.345562         1.862707
 C        -2.426198        -0.024978         1.690807
 C        -1.688743        -1.310381         1.354965
 C        -0.698900        -1.204865         0.133230
 C         0.148397         0.056357         0.184732
 O         1.359313         0.057872        -0.116689
 C        -0.852151         1.236382         0.105046
 C        -2.040139         1.244535         1.068893
 O        -1.722932         0.914148         2.461637
 H        -4.091948        -0.766126         2.906333
 H        -4.606859         0.467234         1.656402
 H        -4.134862        -1.223942         1.114141
 H        -1.178975        -1.723762         2.220354
 H        -2.403012        -1.990381         0.934851
 H        -0.019019        -2.064348         0.099701
 H        -1.205230        -1.152801        -0.806375
 H        -0.413146         2.295554         0.256282
 H        -1.266014         1.185338        -0.869525
 H        -2.874670         1.890433         0.964607
