19
Iteration:  3444charge 0 multiplicity 1
 C        -3.883529        -0.519390         1.665429
 C        -2.448549        -0.173678         1.646284
 C        -1.399529        -1.333676         1.526794
 C        -0.478127        -1.219582         0.349673
 C         0.111845         0.143917         0.027194
 O         1.087738         0.156484        -0.662834
 C        -0.708907         1.474538         0.432107
 C        -2.058552         1.124459         1.179392
 O        -2.058395         0.889856         2.608889
 H        -4.286173        -1.080753         2.474080
 H        -4.486000         0.491271         1.541094
 H        -4.132682        -1.037413         0.748335
 H        -0.896024        -1.368283         2.481421
 H        -1.999010        -2.276808         1.418466
 H         0.394123        -1.893065         0.259859
 H        -0.849557        -1.248073        -0.757640
 H         0.002685         2.087064         1.068119
 H        -0.891603         2.064116        -0.453149
 H        -2.799916         1.845224         0.945822
