19
Iteration:    12
 C        -3.878287        -0.082908         2.120810
 C        -2.525654        -0.060599         1.553492
 C        -1.792970        -1.449873         1.274100
 C        -0.758293        -1.279002         0.064063
 C         0.098182        -0.011607         0.116675
 O         1.356478         0.009603         0.271307
 C        -0.790327         1.198219         0.038205
 C        -1.946533         1.185457         0.937129
 O        -1.656404         1.021178         2.265944
 H        -3.887052        -0.935917         2.802140
 H        -4.208419         0.846499         2.590521
 H        -4.537008        -0.374160         1.259547
 H        -1.264278        -1.706145         2.203114
 H        -2.459547        -2.286709         1.037642
 H        -0.307642        -2.247863        -0.181496
 H        -1.319640        -1.023794        -0.868024
 H        -0.194249         2.077179         0.328455
 H        -1.209583         1.348477        -0.954053
 H        -2.522206         2.095769         0.732460
