19
Iteration:  2596
 C        -3.908404        -0.559211         1.477590
 C        -2.342247        -0.168351         1.658700
 C        -1.310506        -1.231212         1.738398
 C        -0.745917        -1.146504         0.307827
 C         0.077080         0.045027         0.048045
 O         1.006121         0.061865        -0.701142
 C        -0.512448         1.355585         0.689525
 C        -1.972614         1.198441         1.029299
 O        -2.100787         1.002820         2.468793
 H        -3.973512        -1.509711         1.949222
 H        -4.519365         0.169881         2.142698
 H        -4.200416        -0.557532         0.457959
 H        -0.580793        -0.954760         2.495793
 H        -1.716540        -2.155406         2.028736
 H        -0.238354        -2.003284        -0.051156
 H        -1.641477        -1.146516        -0.312762
 H        -0.050161         1.462904         1.695843
 H        -0.107675         2.267534         0.124870
 H        -2.738308         1.752507         0.567227
