19
Iteration:  2989
 C        -3.961872        -0.365804         1.855086
 C        -2.549043        -0.088909         1.488535
 C        -1.796239        -1.369297         1.278972
 C        -0.521397        -1.206288         0.397711
 C         0.095962         0.122798         0.167112
 O         1.296835         0.283164        -0.180003
 C        -0.977373         1.273203         0.107186
 C        -1.999105         1.242781         1.182816
 O        -1.533920         0.733056         2.404673
 H        -4.062053        -1.326204         2.357123
 H        -4.424492         0.404205         2.570527
 H        -4.417524        -0.381799         0.870714
 H        -1.345964        -1.701096         2.242317
 H        -2.378302        -2.125043         0.799126
 H         0.291670        -1.888056         0.752246
 H        -0.724451        -1.750382        -0.514664
 H        -0.514974         2.185280        -0.019169
 H        -1.356786         1.165544        -0.878318
 H        -2.601703         2.145584         1.288064
