19
Iteration:  3816charge 0 multiplicity 1
 C        -4.043065        -0.423107         1.831322
 C        -2.496770        -0.209220         1.612281
 C        -1.660160        -1.234901         0.917375
 C        -0.113411        -1.017435         0.927576
 C         0.076258         0.146528        -0.040852
 O         1.028747         0.279497        -0.783786
 C        -0.865556         1.231066         0.343841
 C        -2.045509         1.191959         1.307973
 O        -1.748179         0.586206         2.596933
 H        -4.208945        -1.359872         2.407005
 H        -4.437600         0.387708         2.336613
 H        -4.592172        -0.635418         0.881284
 H        -2.040570        -2.188417         1.254182
 H        -2.035202        -1.265871        -0.109897
 H         0.130320        -0.626763         1.960518
 H         0.529384        -1.887740         0.674110
 H        -0.065044         1.919694         0.748651
 H        -1.107207         1.750978        -0.530806
 H        -2.734256         2.112485         1.348835
