19
Iteration:  4057charge 0 multiplicity 1
 C        -3.806900        -0.424447         1.499675
 C        -2.378233        -0.222495         1.470790
 C        -1.601352        -1.441633         1.094768
 C        -0.077026        -1.016857         0.967469
 C        -0.047175         0.244066         0.152403
 O         0.380954         0.079010        -1.014818
 C        -0.464715         1.556386         0.683096
 C        -1.842629         1.166037         1.304634
 O        -1.899083         0.653936         2.619199
 H        -4.163267        -0.717673         2.449358
 H        -4.375550         0.483265         1.223063
 H        -4.195673        -1.134537         0.718596
 H        -1.833991        -2.470821         1.569635
 H        -1.841019        -1.600467         0.066790
 H         0.158847        -0.657595         2.019348
 H         0.591715        -1.838181         0.719283
 H         0.281881         1.991549         1.343406
 H        -0.824662         2.336558        -0.089800
 H        -2.765700         1.822757         1.007731
