19
Iteration:   221
 C        -3.979745        -0.150185         1.906414
 C        -2.507656        -0.014134         1.552146
 C        -1.910027        -1.334002         0.945707
 C        -0.401118        -1.393788         0.768608
 C         0.115041        -0.076954         0.098102
 O         1.175272         0.083770        -0.466740
 C        -0.668708         1.224758         0.320910
 C        -1.917187         1.306787         1.134007
 O        -1.758753         0.902303         2.446833
 H        -4.141426        -0.910446         2.801578
 H        -4.333737         0.793038         2.299883
 H        -4.684452        -0.533263         1.088105
 H        -2.295682        -2.188885         1.445133
 H        -2.328613        -1.363942        -0.002635
 H         0.101206        -1.348865         1.814142
 H         0.043421        -2.209658         0.247429
 H         0.084465         2.073898         0.425075
 H        -1.116244         1.325917        -0.646587
 H        -2.604157         2.116947         0.917246
