19
Iteration:   377
 C        -4.033537        -0.177245         1.132312
 C        -2.426677        -0.100545         1.444016
 C        -1.440809        -1.355135         1.596314
 C         0.054228        -1.308904         0.991745
 C         0.043275        -0.027297         0.087616
 O         0.159676         0.091827        -1.117845
 C        -0.253593         1.193772         0.953772
 C        -1.719421         1.223133         1.181230
 O        -2.128081         1.001112         2.490417
 H        -4.594106        -0.660174         1.926092
 H        -4.244534         1.004634         0.881698
 H        -4.139470        -0.843831         0.297333
 H        -1.360884        -1.632067         2.601882
 H        -1.986833        -2.122712         1.165483
 H         0.716679        -1.197016         1.844493
 H         0.282402        -2.351349         0.522820
 H         0.422608         1.010688         1.824438
 H         0.086222         2.137116         0.430048
 H        -2.263005         2.079926         0.660655
