19
Iteration:  1793charge 0 multiplicity 1
 C        -3.792616        -0.485246         1.394097
 C        -2.444319        -0.045793         1.595711
 C        -1.383952        -1.227858         1.736389
 C        -0.667704        -1.181988         0.445249
 C         0.074727        -0.012250         0.129606
 O         0.904837        -0.101551        -0.784914
 C        -0.423941         1.350136         0.712412
 C        -1.889940         1.238031         1.040144
 O        -2.142209         1.059621         2.525221
 H        -4.133580        -1.082566         2.276588
 H        -4.541424         0.332814         1.238273
 H        -3.919599        -1.152470         0.554583
 H        -0.730387        -1.099797         2.671598
 H        -2.047453        -2.214264         1.722347
 H        -0.116493        -2.086980         0.187732
 H        -1.564957        -1.098197        -0.230226
 H         0.135015         1.766639         1.503958
 H        -0.196310         2.030523        -0.150185
 H        -2.618176         1.939009         0.515875
