19
Iteration:  1195charge 0 multiplicity 1
 C        -3.992928        -0.307122         1.942219
 C        -2.520289        -0.057376         1.512864
 C        -1.912785        -1.324100         0.930651
 C        -0.384652        -1.117361         0.753031
 C         0.150169         0.134139         0.028530
 O         1.266157         0.067042        -0.540161
 C        -0.799762         1.406736         0.222518
 C        -1.935156         1.290457         1.249858
 O        -1.749246         0.590355         2.544221
 H        -3.861756        -1.246032         2.584439
 H        -4.481609         0.455282         2.442704
 H        -4.501386        -0.739012         1.037164
 H        -1.982571        -2.269516         1.614411
 H        -2.530521        -1.653126         0.062454
 H        -0.073682        -1.077438         1.865836
 H         0.199389        -1.928976         0.435619
 H        -0.237807         2.252334         0.422232
 H        -1.278779         1.537292        -0.780872
 H        -2.618595         2.125271         1.352397
