19
Iteration:   344
 C        -3.844765        -0.314880         1.290107
 C        -2.339701        -0.032783         1.455735
 C        -1.640342        -1.322585         1.403688
 C        -0.202514        -1.214102         1.012630
 C         0.039021         0.126037         0.161886
 O         0.270789        -0.128151        -1.041702
 C        -0.220327         1.398432         0.854436
 C        -1.692320         1.252976         1.157175
 O        -2.082251         0.855463         2.469442
 H        -4.231278        -0.968868         2.078648
 H        -4.598878         0.642005         1.352320
 H        -4.038845        -0.637647         0.299535
 H        -1.793589        -1.762781         2.345089
 H        -2.079827        -1.888406         0.676737
 H         0.349386        -1.125892         1.956552
 H         0.188693        -2.151077         0.499020
 H         0.468112         1.380668         1.734062
 H        -0.151790         2.288803         0.209381
 H        -2.201609         2.145740         0.739754
