19
Iteration:  2191
 C        -3.967865        -0.163434         1.871177
 C        -2.539152        -0.106637         1.433522
 C        -1.689954        -1.457810         1.280936
 C        -0.347787        -1.306537         0.550734
 C         0.068000         0.062434        -0.022993
 O         1.193413         0.177944        -0.481585
 C        -0.731322         1.397120         0.315980
 C        -1.930671         1.212479         1.158119
 O        -1.933094         0.737547         2.508779
 H        -4.374202        -1.149112         2.166510
 H        -4.089541         0.453831         2.670975
 H        -4.674797         0.331473         1.127627
 H        -1.532818        -1.855011         2.312534
 H        -2.387854        -2.104022         0.735378
 H         0.362137        -1.298400         1.420581
 H         0.062282        -2.193942        -0.011714
 H         0.022426         2.174467         0.614587
 H        -1.152589         1.657361        -0.743829
 H        -2.587668         1.963190         0.998474
