19
Iteration:  2718charge 0 multiplicity 1
 C        -4.030032        -0.462199         1.945620
 C        -2.599595        -0.070881         1.559844
 C        -1.684293        -1.274612         1.308719
 C        -0.445099        -1.290946         0.343754
 C         0.175362         0.050734         0.106267
 O         1.283321         0.248628        -0.467057
 C        -0.730372         1.261965         0.331373
 C        -1.991550         1.164234         1.063712
 O        -1.864626         0.926038         2.478542
 H        -4.055412        -0.714914         3.054898
 H        -4.637322         0.563097         1.729028
 H        -4.388277        -1.247391         1.296919
 H        -1.334173        -1.639758         2.279780
 H        -2.319876        -2.138014         1.035637
 H         0.239615        -2.033713         0.882438
 H        -0.664398        -1.652749        -0.716420
 H        -0.219222         2.017520         0.944606
 H        -0.847531         1.785694        -0.620419
 H        -2.652059         2.016151         0.798295
