19
Iteration:  3327charge 0 multiplicity 1
 C        -3.705501        -0.589972         1.210636
 C        -2.360539        -0.089768         1.641433
 C        -1.280103        -1.108278         1.810814
 C        -0.590388        -1.279927         0.454314
 C        -0.062178         0.047022        -0.035706
 O         0.714379         0.225358        -0.932707
 C        -0.401833         1.295182         0.826727
 C        -1.880402         1.191096         1.222531
 O        -2.276745         0.909525         2.597633
 H        -4.085812        -1.173566         2.049565
 H        -4.386144         0.249623         0.892091
 H        -3.606387        -1.224873         0.318610
 H        -0.407753        -0.732779         2.429203
 H        -1.593560        -2.111678         2.200127
 H         0.105121        -2.128405         0.506483
 H        -1.259150        -1.541983        -0.330503
 H         0.300081         1.223981         1.701330
 H        -0.117296         2.208069         0.270616
 H        -2.464651         1.781605         0.530327
