19
Iteration:  4380charge 0 multiplicity 1
 C        -3.877501        -0.315610         2.199751
 C        -2.444724        -0.152668         1.706049
 C        -1.842019        -1.416622         1.087524
 C        -0.580591        -1.197299         0.128318
 C         0.087075         0.154272         0.144139
 O         1.248076         0.477744         0.108010
 C        -0.976015         1.152327        -0.036221
 C        -2.025194         1.102873         1.006248
 O        -1.473019         0.751226         2.358715
 H        -4.101289        -0.286625         3.262212
 H        -4.584773         0.293715         1.755292
 H        -4.130353        -1.347888         1.961562
 H        -1.661969        -2.235754         1.783519
 H        -2.574682        -1.791420         0.303298
 H         0.277496        -1.841658         0.311006
 H        -1.027177        -1.251898        -0.885875
 H        -0.556707         2.220279         0.005457
 H        -1.309339         0.940533        -1.074683
 H        -2.655492         2.002633         1.083007
