19
Iteration:  3574charge 0 multiplicity 1
 C        -3.683763        -0.556829         2.242439
 C        -2.392984        -0.116890         1.557070
 C        -1.679735        -1.410786         1.120385
 C        -0.625138        -1.232164         0.022354
 C        -0.031193         0.194266         0.139128
 O         1.190314         0.325985         0.374160
 C        -1.023114         1.310195        -0.078380
 C        -2.092246         1.223974         0.911342
 O        -1.576515         0.831987         2.273088
 H        -3.405413        -0.960397         3.205690
 H        -4.252495         0.435336         2.449043
 H        -4.248116        -1.193979         1.653949
 H        -1.300356        -1.628728         2.111549
 H        -2.375343        -2.230727         0.834135
 H         0.113593        -2.030380         0.022945
 H        -1.125163        -1.223376        -0.881427
 H        -0.599743         2.338524         0.283949
 H        -1.239236         1.348375        -1.140085
 H        -2.890875         1.967427         0.930199
