19
Iteration:  1753
 C        -3.893087        -0.347837         1.194109
 C        -2.409275        -0.045814         1.652876
 C        -1.384331        -1.121504         1.839613
 C        -0.430045        -1.374576         0.598920
 C        -0.049234        -0.091393        -0.107837
 O         0.787921         0.131977        -0.997487
 C        -0.373841         1.075587         0.776049
 C        -1.773654         1.211325         1.183975
 O        -2.291043         1.075533         2.599126
 H        -4.506234        -0.432975         2.089049
 H        -4.346514         0.599045         0.544998
 H        -4.073479        -1.173298         0.514815
 H        -0.887774        -0.927601         2.783601
 H        -1.822826        -2.063381         2.035097
 H         0.598463        -1.650707         1.039963
 H        -0.868288        -2.086856        -0.113787
 H         0.455298         0.977385         1.570665
 H        -0.195189         2.093389         0.304574
 H        -2.421830         1.963582         0.720586
