19
Iteration:  3300charge 0 multiplicity 1
 C        -3.787933        -0.534429         1.152988
 C        -2.407131        -0.091653         1.672182
 C        -1.256642        -1.219363         1.762577
 C        -0.322293        -1.314391         0.521838
 C        -0.000976         0.051697        -0.018087
 O         0.649414         0.120044        -1.065101
 C        -0.430747         1.363295         0.894003
 C        -1.984257         1.213693         1.279172
 O        -2.269813         1.007887         2.644926
 H        -4.103658        -1.511895         1.597979
 H        -4.474343         0.257628         1.439309
 H        -3.823041        -0.520363         0.049881
 H        -0.572096        -1.095272         2.564540
 H        -1.747529        -2.176747         1.709199
 H         0.497464        -2.013182         0.738294
 H        -0.920036        -1.780725        -0.347293
 H         0.259922         1.321271         1.684791
 H        -0.276940         2.303129         0.354001
 H        -2.518061         1.834848         0.532154
