19
Iteration:  4862charge 0 multiplicity 1
 C        -3.762415        -0.510123         1.295752
 C        -2.354272        -0.075444         1.555724
 C        -1.305009        -1.284862         1.741142
 C        -0.354005        -1.342545         0.615633
 C        -0.157520         0.110890        -0.065475
 O         0.579234         0.125366        -1.026357
 C        -0.440761         1.375119         0.800584
 C        -1.847782         1.254835         1.229353
 O        -2.222083         0.932506         2.555294
 H        -3.994826        -1.341894         1.960300
 H        -4.424804         0.380315         1.619573
 H        -3.825113        -0.726856         0.230199
 H        -0.718105        -1.074046         2.578328
 H        -1.670666        -2.278419         2.119662
 H         0.709878        -1.541404         0.989957
 H        -0.687922        -2.050224        -0.145859
 H         0.262091         1.386442         1.718866
 H        -0.144860         2.167118         0.251679
 H        -2.448867         2.106460         0.903722
