19
Iteration:  1671
 C        -3.748043        -0.313640         1.006294
 C        -2.358385        -0.058532         1.499908
 C        -1.476489        -1.248072         1.807749
 C        -0.170660        -1.424455         0.897799
 C         0.038657        -0.021742         0.100652
 O         0.043037         0.130472        -1.115851
 C        -0.142194         1.212596         1.024345
 C        -1.671297         1.193871         1.175212
 O        -2.197832         1.127712         2.416257
 H        -4.287568        -1.257297         1.405535
 H        -4.386673         0.467101         1.127974
 H        -3.689888        -0.654154        -0.103089
 H        -1.322232        -1.115350         2.916826
 H        -2.041645        -2.264698         1.491828
 H         0.686474        -1.581252         1.523092
 H        -0.196391        -2.358881         0.307947
 H         0.219280         0.961258         1.979473
 H         0.152901         2.160317         0.746918
 H        -2.213223         1.729167         0.414964
