19
Iteration:  4776charge 0 multiplicity 1
 C        -3.750811        -0.587620         1.439634
 C        -2.431546        -0.090795         1.600509
 C        -1.286464        -1.100821         1.733680
 C        -0.449598        -1.375316         0.417341
 C         0.058952        -0.012433         0.011435
 O         0.700190         0.142143        -1.018409
 C        -0.436584         1.289936         0.883233
 C        -1.941942         1.288276         1.152442
 O        -2.246967         1.051661         2.525904
 H        -3.772062        -1.577039         0.925056
 H        -4.211689        -0.808751         2.481887
 H        -4.378956         0.033721         0.799650
 H        -0.578026        -0.704523         2.430684
 H        -1.787565        -2.001792         2.207270
 H         0.358532        -2.156756         0.537242
 H        -0.914148        -1.807551        -0.471610
 H        -0.113532         1.265563         1.962552
 H        -0.190628         2.189466         0.370522
 H        -2.686712         1.827377         0.542270
