19
Iteration:  1522
 C        -3.916720        -0.459034         1.430020
 C        -2.459012        -0.069169         1.568116
 C        -1.447237        -1.173094         1.786303
 C        -0.582723        -1.368071         0.507496
 C         0.126576        -0.020958         0.039595
 O         0.826776         0.111805        -0.959037
 C        -0.316817         1.208934         0.880753
 C        -1.835490         1.185001         1.043736
 O        -2.196383         1.135098         2.441961
 H        -4.165392        -0.939733         2.375904
 H        -4.593846         0.389357         1.318047
 H        -4.160310        -1.111708         0.605043
 H        -0.856795        -0.905514         2.672532
 H        -1.889071        -2.094833         2.050295
 H         0.249425        -2.136193         0.448865
 H        -1.295427        -1.725685        -0.267452
 H         0.227441         1.087967         1.925008
 H         0.068258         2.180818         0.375548
 H        -2.366451         1.954767         0.460333
