19
Iteration:  1702charge 0 multiplicity 1
 C        -3.780496        -0.381340         1.170077
 C        -2.382201        -0.067659         1.457772
 C        -1.488414        -1.257343         1.752887
 C        -0.307636        -1.333897         0.790137
 C        -0.002228         0.012490         0.201547
 O         0.219423         0.075612        -0.968511
 C        -0.126091         1.256592         0.933252
 C        -1.672898         1.275892         1.094385
 O        -2.185002         1.022846         2.375535
 H        -4.218910        -0.986602         1.962011
 H        -4.362526         0.426185         0.970194
 H        -3.768658        -0.998310         0.243748
 H        -1.314530        -1.249485         2.836926
 H        -1.921964        -2.266584         1.553946
 H         0.583322        -1.668383         1.230664
 H        -0.638744        -1.861614        -0.132751
 H         0.332043         1.294100         1.921595
 H         0.268240         2.061589         0.382953
 H        -2.281498         1.908041         0.483221
