19
Iteration:  3543charge 0 multiplicity 1
 C        -3.834829        -0.507761         2.128459
 C        -2.415474        -0.173558         1.611137
 C        -1.611126        -1.413302         1.261597
 C        -0.598816        -1.183332         0.090421
 C         0.078565         0.182399         0.121070
 O         1.260876         0.325883         0.101002
 C        -0.945956         1.319334         0.036959
 C        -2.113055         1.117094         0.946995
 O        -1.690552         0.895159         2.321317
 H        -4.007287        -1.408426         2.750696
 H        -4.180134         0.231246         2.912348
 H        -4.632547        -0.499604         1.388418
 H        -1.128969        -1.672043         2.194832
 H        -2.158604        -2.384091         1.089834
 H         0.134503        -2.003869        -0.004005
 H        -1.201135        -1.257211        -0.830800
 H        -0.419243         2.263356         0.404079
 H        -1.190685         1.507707        -1.029122
 H        -2.891390         1.888621         0.800143
