19
Iteration:  2832charge 0 multiplicity 1
 C        -3.728818        -0.176481         2.203746
 C        -2.353879        -0.128243         1.618383
 C        -1.646114        -1.406797         1.084018
 C        -0.553293        -1.268537         0.001850
 C        -0.029272         0.114634         0.120651
 O         1.128272         0.306218         0.550246
 C        -1.093558         1.157995        -0.251067
 C        -2.031640         1.158937         0.980716
 O        -1.549703         0.820084         2.339720
 H        -3.849913        -0.879196         3.080756
 H        -4.040802         0.809995         2.419181
 H        -4.415072        -0.516771         1.309568
 H        -1.112206        -2.025432         1.816234
 H        -2.469036        -2.046177         0.674930
 H         0.164485        -2.085051        -0.018867
 H        -0.909645        -1.244606        -1.039319
 H        -0.653835         2.201276        -0.544213
 H        -1.702686         0.756418        -1.043780
 H        -2.866728         1.880759         0.822117
