19
Iteration:  3496
 C        -3.992417        -0.436230         1.816837
 C        -2.505440        -0.125429         1.611293
 C        -1.411981        -1.333945         1.411742
 C        -0.537918        -1.288341         0.212367
 C         0.086395         0.120617         0.077720
 O         1.250232         0.341803        -0.314445
 C        -0.896624         1.273698         0.219101
 C        -2.093439         1.127735         1.158948
 O        -1.782995         0.873209         2.515384
 H        -4.152116        -1.454163         2.057118
 H        -4.422998         0.069937         2.698734
 H        -4.645005        -0.233963         0.975992
 H        -0.846811        -1.454994         2.326773
 H        -1.893667        -2.292340         1.385748
 H         0.179093        -2.087383         0.195533
 H        -0.864543        -1.296784        -0.732994
 H        -0.463563         2.301604         0.533133
 H        -1.103462         1.384533        -0.864642
 H        -2.889803         1.857949         0.904784
