19
Iteration:  4162
 C        -3.977677        -0.385381         1.967286
 C        -2.502020        -0.165544         1.667658
 C        -1.759856        -1.455427         1.006137
 C        -0.228895        -1.199912         0.693474
 C         0.094471         0.156787         0.109872
 O         1.018226         0.341465        -0.645938
 C        -0.766434         1.407985         0.295431
 C        -2.047588         1.161501         1.155449
 O        -1.694867         0.686639         2.464452
 H        -4.223665        -1.465900         2.325350
 H        -4.384890         0.247891         2.724097
 H        -4.518552        -0.285846         1.009700
 H        -1.939664        -2.246645         1.656070
 H        -2.353590        -1.671321         0.058491
 H         0.314851        -1.274338         1.628829
 H         0.076080        -1.831133        -0.125318
 H        -0.169099         2.141606         0.975706
 H        -0.862015         2.009444        -0.567347
 H        -2.705892         1.969926         1.249861
