19
Iteration:  2695charge 0 multiplicity 1
 C        -3.907762        -0.324026         1.765991
 C        -2.504154        -0.135233         1.533687
 C        -1.598629        -1.452894         1.502959
 C        -0.453215        -1.234572         0.468418
 C         0.036843         0.141997         0.073313
 O         1.113915         0.124565        -0.490897
 C        -0.659902         1.495211         0.395278
 C        -1.995293         1.241566         1.054230
 O        -1.895538         0.744021         2.399797
 H        -3.956211        -0.594445         2.844316
 H        -4.645975         0.637869         1.566109
 H        -4.238017        -1.182389         1.159861
 H        -1.202433        -1.704103         2.493318
 H        -2.193088        -2.327883         1.291222
 H         0.498197        -1.765933         0.665471
 H        -0.937923        -1.548342        -0.534517
 H         0.005297         2.091919         0.931608
 H        -0.896299         2.069280        -0.535759
 H        -2.795314         1.923116         0.827736
