19
Iteration:  3469
 C        -3.824903        -0.554139         1.707236
 C        -2.456257        -0.134346         1.642718
 C        -1.482628        -1.364300         1.553451
 C        -0.599158        -1.245610         0.372580
 C         0.011956         0.167118        -0.025930
 O         1.141114         0.273796        -0.476739
 C        -0.743224         1.413100         0.317163
 C        -1.997739         1.181925         1.166796
 O        -1.907508         0.840996         2.515837
 H        -4.135915        -1.613986         1.932892
 H        -4.551415         0.132772         2.186777
 H        -4.179038        -0.434173         0.609414
 H        -1.001123        -1.524334         2.566162
 H        -2.110591        -2.276880         1.304104
 H         0.316650        -1.880443         0.437373
 H        -0.976759        -1.542175        -0.689982
 H        -0.197148         2.209231         0.705241
 H        -0.997571         1.753178        -0.713830
 H        -2.653334         2.064859         1.017853
