19
Iteration:  4214
 C        -4.059414        -0.381252         2.145333
 C        -2.447445        -0.174057         1.658134
 C        -1.740154        -1.362640         0.953242
 C        -0.342748        -1.128757         0.541316
 C         0.049160         0.213445         0.008975
 O         1.262460         0.309864        -0.250970
 C        -0.977113         1.370512        -0.016288
 C        -2.024041         1.177927         1.143954
 O        -1.570599         0.582739         2.482734
 H        -4.332248        -1.482681         2.254352
 H        -4.200405         0.078289         3.086955
 H        -4.741111        -0.020907         1.423246
 H        -1.900459        -2.207930         1.641491
 H        -2.441571        -1.519978         0.065229
 H         0.349148        -1.194994         1.361637
 H        -0.170525        -1.901049        -0.265885
 H        -0.647302         2.402210         0.001702
 H        -1.506484         1.279429        -1.060850
 H        -2.809446         1.986494         1.356926
