19
Iteration:  2336charge 0 multiplicity 1
 C        -3.830218        -0.320498         1.416684
 C        -2.356477        -0.037556         1.415337
 C        -1.626947        -1.324589         1.250661
 C        -0.137084        -1.129456         0.986102
 C         0.045006         0.120662         0.129207
 O         0.494939        -0.088743        -0.984664
 C        -0.447078         1.466818         0.629331
 C        -1.866441         1.331973         1.267499
 O        -2.017450         0.639879         2.595483
 H        -4.092614        -0.855858         2.328982
 H        -4.589029         0.580518         1.496656
 H        -4.189024        -0.821498         0.540720
 H        -1.834048        -2.004156         2.155065
 H        -2.175316        -1.935287         0.461869
 H         0.296757        -1.024177         2.054147
 H         0.446738        -1.904930         0.479621
 H         0.268793         1.723262         1.371956
 H        -0.480277         2.178214        -0.153892
 H        -2.535411         2.229831         1.119724
