19
Iteration:  2470
 C        -3.848970        -0.319943         1.427945
 C        -2.399714        -0.073468         1.676093
 C        -1.449792        -1.338575         1.550260
 C        -0.293949        -1.273735         0.543550
 C        -0.021918         0.030268        -0.045765
 O         0.811342         0.113450        -0.947750
 C        -0.493263         1.276221         0.756162
 C        -1.922228         1.200342         1.173518
 O        -2.228587         0.967481         2.591207
 H        -4.264822        -0.858744         2.341877
 H        -4.281283         0.700326         1.316284
 H        -3.881360        -0.962634         0.491128
 H        -0.982819        -1.438102         2.560852
 H        -2.161252        -2.203921         1.359534
 H         0.726633        -1.440101         1.098814
 H        -0.259614        -2.110223        -0.198634
 H         0.026215         1.288931         1.655831
 H        -0.265882         2.160487         0.274519
 H        -2.700721         1.844315         0.592153
