19
Iteration:  3399charge 0 multiplicity 1
 C        -3.920642        -0.599140         1.637636
 C        -2.401025        -0.138464         1.616000
 C        -1.349531        -1.277842         1.609703
 C        -0.583608        -1.283854         0.293534
 C         0.036406         0.145425        -0.047378
 O         1.008440         0.304266        -0.801863
 C        -0.473241         1.317542         0.741178
 C        -1.925578         1.152517         1.152311
 O        -2.228679         0.963811         2.484222
 H        -4.231234        -0.350964         2.627262
 H        -4.597760         0.028361         0.934445
 H        -4.025898        -1.655883         1.449214
 H        -0.773512        -0.883240         2.442448
 H        -1.589555        -2.290257         1.971504
 H         0.245893        -2.012941         0.213467
 H        -1.384780        -1.727892        -0.463407
 H         0.185073         1.114365         1.666344
 H        -0.124319         2.265290         0.378738
 H        -2.643079         1.726457         0.593599
