19
Iteration:   660charge 0 multiplicity 1
 C        -3.902588        -0.286385         2.088596
 C        -2.447239        -0.021854         1.616585
 C        -1.721401        -1.378490         1.263162
 C        -0.718511        -1.278583         0.035343
 C         0.154419         0.010818         0.117228
 O         1.364439         0.196786         0.098250
 C        -0.847091         1.206643         0.025634
 C        -2.049622         1.219344         1.035978
 O        -1.684516         0.909012         2.386582
 H        -3.952050        -1.227009         2.649813
 H        -4.370720         0.677997         2.625729
 H        -4.589890        -0.447847         1.269414
 H        -1.175810        -1.620958         2.207035
 H        -2.423572        -2.299258         1.032999
 H        -0.190385        -2.186170         0.046414
 H        -1.212739        -1.251631        -0.900887
 H        -0.207378         2.052224         0.214755
 H        -1.261163         1.315073        -1.028929
 H        -2.943053         1.926121         0.735940
