19
Iteration:  1718
 C        -3.867710        -0.373146         1.145049
 C        -2.362764        -0.046268         1.493669
 C        -1.449092        -1.252163         1.755445
 C        -0.315886        -1.302401         0.715088
 C         0.103406         0.021936         0.087575
 O         0.379466        -0.042112        -1.099953
 C        -0.224674         1.319746         1.036164
 C        -1.732523         1.200396         1.139177
 O        -2.235523         1.052672         2.483424
 H        -4.386961        -0.697946         2.105482
 H        -4.442158         0.637343         0.850475
 H        -4.101235        -1.202363         0.471537
 H        -0.937376        -1.061814         2.731433
 H        -2.193349        -2.097665         1.785075
 H         0.570223        -1.863497         1.182626
 H        -0.541927        -1.986154        -0.085572
 H         0.274584         1.254905         2.022236
 H         0.023777         2.334752         0.569562
 H        -2.263433         1.981545         0.525874
