19
Iteration:  3067
 C        -3.966767        -0.432346         1.831441
 C        -2.480614        -0.090279         1.577781
 C        -1.768396        -1.344785         1.144641
 C        -0.269168        -1.225011         0.714776
 C         0.113977         0.122207         0.108913
 O         1.032853         0.190546        -0.730711
 C        -0.580835         1.348871         0.491914
 C        -1.943659         1.258292         1.079360
 O        -1.973447         0.790619         2.483503
 H        -3.990112        -1.232925         2.680963
 H        -4.553833         0.487373         2.025318
 H        -4.597906        -0.942353         1.060670
 H        -1.941532        -2.139600         1.955574
 H        -2.362425        -1.656772         0.293254
 H         0.470445        -1.338129         1.611535
 H        -0.004667        -2.121740         0.175487
 H         0.134793         1.880331         1.052048
 H        -0.561869         1.938689        -0.394923
 H        -2.655396         2.070437         0.880989
