19
Iteration:  3775charge 0 multiplicity 1
 C        -3.869747        -0.403542         1.885158
 C        -2.474690        -0.135425         1.561611
 C        -1.760441        -1.460868         1.085209
 C        -0.312807        -1.128411         0.653414
 C         0.089441         0.213995         0.153428
 O         1.086320         0.386463        -0.495848
 C        -0.909805         1.369845         0.210035
 C        -2.013037         1.186177         1.171877
 O        -1.704752         0.586168         2.494406
 H        -4.099812        -1.449718         2.190983
 H        -3.981914         0.245952         2.775341
 H        -4.555358         0.027619         1.067989
 H        -1.617541        -2.241140         1.831816
 H        -2.408291        -2.067552         0.289150
 H         0.421263        -1.317944         1.431098
 H         0.005036        -1.792030        -0.109594
 H        -0.513347         2.365793         0.196815
 H        -1.480600         1.205441        -0.798665
 H        -2.708094         2.046875         1.282867
