19
Iteration:  3831charge 0 multiplicity 1
 C        -3.952747        -0.492210         1.851329
 C        -2.573792        -0.124455         1.520803
 C        -1.707156        -1.284030         0.896610
 C        -0.182021        -0.961123         1.004155
 C         0.152239         0.137264         0.052295
 O         0.910989         0.212755        -0.874639
 C        -0.742650         1.423465         0.373725
 C        -1.950797         1.184584         1.275505
 O        -1.802334         0.490967         2.595174
 H        -3.973836        -1.216866         2.676645
 H        -4.664651         0.377414         2.133335
 H        -4.410752        -0.905812         0.897594
 H        -1.746724        -2.174754         1.528363
 H        -1.960795        -1.397355        -0.254350
 H         0.021231        -0.513127         1.969012
 H         0.424609        -1.835754         0.887108
 H        -0.129818         2.061876         0.970126
 H        -1.047564         1.974064        -0.600851
 H        -2.623563         2.041709         1.340979
