19
Iteration:   946charge 0 multiplicity 1
 C        -3.989042        -0.269578         1.639694
 C        -2.460893        -0.128031         1.450228
 C        -1.659267        -1.447840         1.085442
 C        -0.112048        -1.187849         0.951936
 C         0.135142         0.074426         0.088825
 O         0.628762         0.100427        -1.022607
 C        -0.441125         1.423940         0.721853
 C        -1.903796         1.260120         1.205810
 O        -1.987867         0.742765         2.563887
 H        -4.245702        -0.855069         2.566759
 H        -4.363217         0.698773         1.838978
 H        -4.465408        -0.682561         0.693492
 H        -1.710380        -2.152318         1.874719
 H        -1.955442        -1.926186         0.163942
 H         0.297092        -0.899935         1.947954
 H         0.315557        -2.101045         0.688145
 H         0.054814         1.659281         1.597472
 H        -0.265823         2.268072        -0.062668
 H        -2.615023         2.074905         1.066362
