19
Iteration:   486charge 0 multiplicity 1
 C        -3.695117        -0.401032         1.122416
 C        -2.338838        -0.064502         1.713470
 C        -1.242851        -1.223905         1.906174
 C        -0.607755        -1.315164         0.526264
 C        -0.078621         0.016123        -0.005660
 O         0.582424         0.089408        -1.002256
 C        -0.210906         1.176220         0.910858
 C        -1.708976         1.210156         1.187823
 O        -2.439020         1.112383         2.460822
 H        -4.137144        -1.081131         1.790393
 H        -4.530290         0.513985         1.327460
 H        -3.859665        -0.523134         0.123769
 H        -0.502380        -1.056520         2.668676
 H        -1.769970        -2.183216         2.052807
 H         0.212545        -2.020900         0.547225
 H        -1.463468        -1.836686        -0.128908
 H         0.211672         0.696767         1.895799
 H         0.520226         2.027629         0.512591
 H        -2.267813         1.754989         0.305859
