19
Iteration:  2103charge 0 multiplicity 1
 C        -3.870769        -0.109345         2.289152
 C        -2.552139        -0.060930         1.484085
 C        -1.925640        -1.337191         0.855910
 C        -0.394778        -1.391766         0.450980
 C         0.107941         0.035063         0.042437
 O         1.266490         0.367992         0.178494
 C        -0.967177         1.224827        -0.150223
 C        -2.000043         1.275639         1.064704
 O        -1.583009         0.582471         2.354932
 H        -3.510149        -0.375191         3.244916
 H        -4.285590         0.818633         2.331956
 H        -4.575514        -0.792504         1.852492
 H        -2.061095        -2.212491         1.523972
 H        -2.494449        -1.747417         0.015103
 H         0.165643        -1.559855         1.363319
 H        -0.180959        -2.087467        -0.395068
 H        -0.382782         2.158256        -0.295454
 H        -1.659659         1.128850        -1.044887
 H        -2.557742         2.109590         1.218156
