19
Iteration:   561
 C        -3.926995        -0.297096         1.566506
 C        -2.384379        -0.093635         1.613929
 C        -1.465910        -1.278015         1.648510
 C        -0.603985        -1.320464         0.327319
 C         0.087164         0.005160        -0.061429
 O         1.092012         0.037254        -0.745507
 C        -0.444105         1.368030         0.610510
 C        -1.960942         1.187622         1.180576
 O        -2.197267         0.951116         2.587327
 H        -4.239200        -0.421835         2.606815
 H        -4.477549         0.580580         1.000920
 H        -4.313733        -1.095089         0.999350
 H        -0.764903        -1.116258         2.502254
 H        -2.101150        -2.256157         1.831543
 H         0.195399        -2.027622         0.442104
 H        -1.178467        -1.712490        -0.509765
 H         0.243104         1.636875         1.436941
 H        -0.426536         2.214302        -0.187751
 H        -2.724971         1.807313         0.554926
