19
Iteration:  3779
 C        -3.882944        -0.387026         1.862687
 C        -2.431641        -0.147130         1.574957
 C        -1.769159        -1.468998         1.051177
 C        -0.291250        -1.134356         0.674949
 C         0.091574         0.254695         0.160860
 O         1.075581         0.366149        -0.535997
 C        -0.895545         1.368224         0.202891
 C        -2.038828         1.169298         1.193746
 O        -1.723419         0.587027         2.529195
 H        -4.098051        -1.382179         2.189385
 H        -4.083560         0.260325         2.816734
 H        -4.506166        -0.007042         1.112280
 H        -1.654928        -2.275738         1.857095
 H        -2.430873        -1.865659         0.310114
 H         0.401408        -1.292127         1.528649
 H         0.144440        -1.820051        -0.121144
 H        -0.496135         2.401958         0.188905
 H        -1.423495         1.168008        -0.770539
 H        -2.721225         1.990474         1.125023
