19
Iteration:   774
 C        -3.660322        -0.211671         2.453325
 C        -2.387778        -0.058837         1.553688
 C        -1.950234        -1.320059         0.749367
 C        -0.520942        -1.321859         0.153319
 C        -0.014708         0.061412         0.250298
 O         1.126443         0.268081         0.579103
 C        -1.029968         1.083549        -0.191400
 C        -2.077300         1.227543         0.909834
 O        -1.433877         0.841803         2.168836
 H        -3.327313        -0.831376         3.295134
 H        -3.959800         0.728019         2.690620
 H        -4.483118        -0.772738         1.916812
 H        -1.929269        -2.213606         1.455804
 H        -2.682379        -1.538488        -0.045916
 H         0.301333        -2.041563         0.519532
 H        -0.625149        -1.501630        -0.915129
 H        -0.506543         2.164786        -0.312504
 H        -1.366257         0.880474        -1.196288
 H        -2.647479         2.135825         0.891451
