19
Iteration:  1261charge 0 multiplicity 1
 C        -3.821206        -0.146475         2.315845
 C        -2.540961        -0.113008         1.540036
 C        -2.010356        -1.358992         0.673796
 C        -0.495691        -1.263945         0.519777
 C         0.069632         0.148364         0.207968
 O         1.241060         0.404871         0.200572
 C        -0.989294         1.160519        -0.141356
 C        -1.945139         1.152825         1.073492
 O        -1.413230         0.614588         2.231860
 H        -3.784798        -1.160440         2.808259
 H        -3.835838         0.657446         3.039351
 H        -4.787501        -0.090658         1.747782
 H        -2.419211        -2.295858         1.206321
 H        -2.583132        -1.399862        -0.284627
 H         0.024097        -1.643801         1.467148
 H        -0.166891        -1.991272        -0.200003
 H        -0.513398         2.048404        -0.342445
 H        -1.659920         0.842558        -0.922285
 H        -2.553044         2.058004         1.080766
