19
Iteration:  3424
 C        -3.991520        -0.543385         1.629879
 C        -2.431484        -0.121787         1.657401
 C        -1.379142        -1.260251         1.587269
 C        -0.541315        -1.224444         0.317025
 C         0.163373         0.089619        -0.005682
 O         1.082807         0.311263        -0.763180
 C        -0.610674         1.277030         0.633992
 C        -2.030304         1.153372         1.151732
 O        -2.095312         0.882445         2.530812
 H        -4.243314        -0.577223         2.707498
 H        -4.665441         0.352556         1.275993
 H        -4.193612        -1.518459         1.125503
 H        -0.783506        -1.182891         2.525105
 H        -1.790849        -2.314377         1.755123
 H         0.311967        -1.951542         0.314400
 H        -1.091579        -1.572825        -0.666654
 H         0.098901         1.737367         1.268059
 H        -0.680143         1.964738        -0.207480
 H        -2.769971         1.813314         0.736264
