19
Iteration:  1417
 C        -3.924486        -0.339295         1.876347
 C        -2.380302        -0.081205         1.733134
 C        -1.512758        -1.424593         1.433201
 C        -0.705149        -1.246181         0.059749
 C         0.040802         0.072287         0.043523
 O         1.250393        -0.040963        -0.011695
 C        -0.774015         1.385338         0.141154
 C        -1.995154         1.191453         0.998360
 O        -1.853342         1.045919         2.434818
 H        -4.126176        -1.156851         2.543694
 H        -4.401387         0.711788         2.259288
 H        -4.203911        -0.687842         0.887112
 H        -0.767017        -1.645045         2.283648
 H        -2.295441        -2.263165         1.280970
 H         0.109535        -1.898473        -0.005929
 H        -1.433097        -1.276867        -0.797012
 H        -0.264370         2.262504         0.267530
 H        -1.062519         1.439191        -0.909505
 H        -2.740321         2.025504         0.795370
