19
Iteration:  3058charge 0 multiplicity 1
 C        -4.052183        -0.384859         1.886065
 C        -2.509982        -0.114290         1.573342
 C        -1.727953        -1.416325         1.167073
 C        -0.276701        -1.303762         0.678974
 C         0.131454         0.092064         0.055265
 O         1.087110         0.234958        -0.667494
 C        -0.577770         1.357698         0.452906
 C        -2.040026         1.217227         1.096416
 O        -1.926420         0.879466         2.470436
 H        -4.105010        -1.180475         2.694709
 H        -4.493742         0.451094         2.293944
 H        -4.330500        -0.731313         0.896948
 H        -1.843319        -2.261071         1.914242
 H        -2.249428        -1.729995         0.216899
 H         0.505960        -1.435968         1.481426
 H        -0.000863        -1.945117        -0.158023
 H         0.017677         1.816914         1.216550
 H        -0.538022         2.065628        -0.386482
 H        -2.753826         2.034796         0.836817
