19
Iteration:  3749charge 0 multiplicity 1
 C        -4.030138        -0.456848         2.047666
 C        -2.575314        -0.103813         1.585611
 C        -1.780277        -1.420884         1.137064
 C        -0.295402        -1.233506         0.470876
 C         0.039563         0.178920        -0.031911
 O         1.233883         0.452865        -0.215703
 C        -0.954202         1.383207         0.081497
 C        -2.054233         1.176365         1.101424
 O        -1.541010         0.608065         2.412416
 H        -4.074004        -1.477299         2.434770
 H        -4.191198         0.243496         2.835730
 H        -4.742835        -0.268125         1.281536
 H        -1.484344        -2.010374         1.987276
 H        -2.482625        -2.065601         0.665867
 H         0.568080        -1.448379         1.166009
 H        -0.164448        -1.972870        -0.387079
 H        -0.388666         2.272795         0.518768
 H        -1.347835         1.737931        -0.793859
 H        -2.818705         2.020139         1.217871
