19
Iteration:   635charge 0 multiplicity 1
 C        -3.912654        -0.417742         1.946322
 C        -2.447829        -0.017228         1.577323
 C        -1.619549        -1.321760         1.323215
 C        -0.603878        -1.225962         0.190056
 C         0.045763         0.062808         0.096108
 O         1.248331        -0.028721        -0.137583
 C        -0.729162         1.340990         0.174329
 C        -2.031919         1.268092         1.075743
 O        -1.800349         0.959755         2.445573
 H        -4.033846        -1.358352         2.529956
 H        -4.259209         0.497001         2.417884
 H        -4.662092        -0.471880         1.060557
 H        -1.244129        -1.534225         2.326074
 H        -2.236564        -2.174565         1.026909
 H         0.186855        -1.988248         0.320408
 H        -1.109794        -1.503134        -0.744738
 H        -0.084272         2.148973         0.322559
 H        -1.226706         1.466075        -0.798807
 H        -2.749463         2.036764         0.808561
