19
Iteration:  3423charge 0 multiplicity 1
 C        -3.989193        -0.547103         1.633561
 C        -2.439340        -0.123371         1.649264
 C        -1.375211        -1.259316         1.597126
 C        -0.547154        -1.231879         0.318720
 C         0.157577         0.083338        -0.011438
 O         1.082477         0.320219        -0.764406
 C        -0.602673         1.277854         0.637596
 C        -2.025706         1.147195         1.146141
 O        -2.096764         0.886830         2.534047
 H        -4.237149        -0.574612         2.688871
 H        -4.674060         0.341458         1.243345
 H        -4.217131        -1.507988         1.149782
 H        -0.783476        -1.148743         2.514544
 H        -1.812409        -2.300534         1.751677
 H         0.313047        -1.939830         0.310297
 H        -1.073937        -1.550810        -0.695647
 H         0.137714         1.725650         1.287103
 H        -0.669150         1.971217        -0.182507
 H        -2.755141         1.802346         0.742161
