19
Iteration:   207charge 0 multiplicity 1
 C        -3.930747        -0.165668         2.041332
 C        -2.511567        -0.009776         1.551644
 C        -1.954121        -1.306668         0.952979
 C        -0.437445        -1.333212         0.609049
 C         0.167044        -0.013231         0.180994
 O         1.311547         0.010821        -0.364863
 C        -0.717412         1.223985         0.191813
 C        -2.008265         1.256648         1.060494
 O        -1.798099         0.919401         2.496744
 H        -3.908106        -0.795155         2.959023
 H        -4.380154         0.776646         2.232282
 H        -4.525361        -0.622916         1.175727
 H        -2.233682        -2.207994         1.560457
 H        -2.522447        -1.359712         0.000369
 H         0.149376        -1.675560         1.461018
 H        -0.340015        -2.141725        -0.181881
 H        -0.069042         2.096334         0.450490
 H        -0.852636         1.374733        -0.914694
 H        -2.664685         2.129002         0.876737
