19
Iteration:  4601charge 0 multiplicity 1
 C        -3.921648        -0.532997         1.722896
 C        -2.503377        -0.112234         1.533635
 C        -1.363858        -1.186207         1.630345
 C        -0.587313        -1.283199         0.304412
 C         0.056893         0.057007        -0.046810
 O         1.155306         0.194841        -0.590252
 C        -0.676187         1.347742         0.503298
 C        -2.035503         1.187718         1.083501
 O        -1.991725         0.909355         2.478861
 H        -4.144593        -1.516238         1.427722
 H        -4.033993        -0.557264         2.852424
 H        -4.751645         0.147220         1.535817
 H        -0.719640        -0.951185         2.466052
 H        -1.788603        -2.226515         1.971972
 H         0.190918        -2.121540         0.196822
 H        -1.419575        -1.492275        -0.405829
 H         0.107749         1.795533         1.209120
 H        -0.706788         1.913648        -0.373260
 H        -2.834927         1.897067         0.896571
