19
Iteration:  4604charge 0 multiplicity 1
 C        -3.909853        -0.545385         1.727720
 C        -2.494175        -0.111951         1.544238
 C        -1.386921        -1.214518         1.645865
 C        -0.578078        -1.304548         0.304543
 C         0.055788         0.070057        -0.058409
 O         1.120999         0.227725        -0.578738
 C        -0.643455         1.311106         0.500259
 C        -2.000907         1.193032         1.085735
 O        -2.012651         0.937308         2.467445
 H        -4.257273        -1.571043         1.398003
 H        -3.977074        -0.627713         2.804871
 H        -4.618732         0.251944         1.530893
 H        -0.778901        -1.008444         2.572660
 H        -1.750176        -2.194890         1.942036
 H         0.123409        -2.079691         0.094798
 H        -1.432132        -1.604307        -0.395525
 H         0.024761         1.763346         1.199647
 H        -0.662230         2.007860        -0.441175
 H        -2.770588         1.939421         0.847123
