19
Iteration:  4447charge 0 multiplicity 1
 C        -3.864537        -0.459774         2.066463
 C        -2.433838        -0.121031         1.641483
 C        -1.616232        -1.407100         1.283056
 C        -0.618094        -1.266859         0.076907
 C         0.076865         0.160430         0.094139
 O         1.272190         0.275911        -0.104788
 C        -0.901414         1.379543         0.122706
 C        -2.103991         1.108868         1.061026
 O        -1.684665         0.897624         2.418054
 H        -4.011896        -1.011467         2.954796
 H        -4.518776         0.412173         2.264342
 H        -4.244380        -1.087346         1.241385
 H        -1.108324        -1.743199         2.170381
 H        -2.458896        -2.123770         0.943680
 H         0.125726        -2.145223         0.150818
 H        -1.232359        -1.388545        -0.878380
 H        -0.352429         2.257779         0.676832
 H        -1.091023         1.701772        -0.922246
 H        -2.811308         1.913640         1.028672
