19
Iteration:   985charge 0 multiplicity 1
 C        -3.821729        -0.340691         1.168677
 C        -2.384678        -0.087015         1.538047
 C        -1.523547        -1.312020         1.254394
 C        -0.093139        -1.122553         0.987700
 C         0.021178         0.105522         0.119526
 O         0.148515        -0.026851        -1.084296
 C        -0.265966         1.429273         0.809415
 C        -1.749537         1.207198         1.353174
 O        -2.050766         0.767244         2.653338
 H        -4.312963        -0.987795         1.894355
 H        -4.452855         0.606295         1.172307
 H        -3.904052        -0.939514         0.295233
 H        -1.873959        -2.084557         2.038441
 H        -2.057189        -1.730357         0.351793
 H         0.526797        -0.983528         1.880429
 H         0.441958        -1.962677         0.391499
 H         0.423910         1.646599         1.722429
 H        -0.077393         2.255272         0.163105
 H        -2.358099         2.054600         0.986457
