19
Iteration:   530charge 0 multiplicity 1
 C        -3.911095        -0.583976         1.363765
 C        -2.461985        -0.029009         1.635176
 C        -1.443401        -1.122376         1.708529
 C        -0.613850        -1.281687         0.391577
 C         0.067006        -0.030626         0.048642
 O         0.851008         0.017547        -0.876988
 C        -0.288307         1.253957         0.774789
 C        -1.860817         1.308245         1.122423
 O        -2.137644         1.051997         2.584346
 H        -4.327766        -0.923491         2.271332
 H        -4.770753         0.163092         0.960231
 H        -3.699299        -1.288851         0.646963
 H        -0.784148        -0.874888         2.537345
 H        -1.999903        -2.066359         1.958140
 H         0.085090        -2.097250         0.357860
 H        -1.334319        -1.376691        -0.527128
 H         0.287112         1.227558         1.792814
 H         0.080829         2.211594         0.219625
 H        -2.670517         2.026459         0.700114
