19
Iteration:  4823charge 0 multiplicity 1
 C        -3.854316        -0.494186         1.393828
 C        -2.467530        -0.171910         1.692043
 C        -1.379264        -1.283672         1.838567
 C        -0.397449        -1.319983         0.607794
 C         0.145713         0.131645        -0.024611
 O         0.602315         0.253287        -1.137606
 C        -0.310143         1.323091         0.828637
 C        -1.822944         1.071416         1.067525
 O        -2.237683         1.036580         2.532155
 H        -4.059198        -1.617711         1.473201
 H        -4.551193        -0.124174         2.067927
 H        -4.153281        -0.262520         0.351763
 H        -0.832672        -0.896971         2.811817
 H        -1.810230        -2.273274         1.998961
 H         0.309445        -2.096896         0.779948
 H        -0.922629        -1.628486        -0.329615
 H         0.313666         1.295260         1.686887
 H        -0.537131         2.371996         0.281083
 H        -2.437293         1.812565         0.484168
