19
Iteration:  2638charge 0 multiplicity 1
 C        -3.990819        -0.489483         1.526955
 C        -2.535230        -0.041989         1.651621
 C        -1.479882        -1.216416         1.600702
 C        -0.506361        -1.371225         0.374113
 C         0.130456        -0.020091        -0.079160
 O         1.155299         0.222099        -0.739540
 C        -0.545924         1.256267         0.474949
 C        -1.948989         1.274071         1.259603
 O        -2.145743         0.966576         2.678499
 H        -4.082315        -1.382582         2.117737
 H        -4.519343         0.327352         2.028233
 H        -4.274954        -0.634220         0.420505
 H        -0.828183        -1.225164         2.490595
 H        -2.004742        -2.152454         1.570992
 H         0.259685        -2.059928         0.611528
 H        -0.945780        -1.857231        -0.559185
 H         0.210247         1.696238         0.961971
 H        -0.675937         1.881418        -0.454977
 H        -2.632878         1.987128         0.867202
