19
Iteration:  2898
 C        -3.626382        -0.373341         2.443888
 C        -2.488076        -0.156613         1.464835
 C        -1.879079        -1.459408         1.075890
 C        -0.713810        -1.167766         0.117715
 C         0.045762         0.201649         0.294375
 O         1.238421         0.285570         0.581814
 C        -0.917792         1.345843        -0.204193
 C        -2.088158         1.127900         0.813212
 O        -1.484184         0.780496         1.993712
 H        -3.384240        -0.836974         3.385674
 H        -4.226800         0.473205         2.708544
 H        -4.427984        -1.014212         1.982466
 H        -1.672881        -1.836848         2.023517
 H        -2.622583        -2.031873         0.520094
 H         0.071413        -1.839783         0.289641
 H        -0.978819        -1.408224        -0.917016
 H        -0.454314         2.368863        -0.209621
 H        -1.354922         1.207753        -1.094709
 H        -2.840582         1.929968         0.830914
