19
Iteration:  4973charge 0 multiplicity 1
 C        -3.853261        -0.691581         1.533266
 C        -2.518083        -0.160019         1.727992
 C        -1.389496        -1.158525         1.745088
 C        -0.565924        -1.176738         0.341847
 C         0.125089         0.095561        -0.070817
 O         0.856596         0.177365        -1.071102
 C        -0.372985         1.266790         0.833126
 C        -1.816708         1.106950         1.235469
 O        -2.277096         1.164436         2.546629
 H        -4.469742        -1.033503         2.438135
 H        -4.432956        -0.124495         0.839997
 H        -3.824325        -1.699664         1.013715
 H        -0.682344        -0.943733         2.512921
 H        -1.692985        -2.257444         1.849926
 H         0.175591        -2.046117         0.412288
 H        -1.181050        -1.553537        -0.499407
 H         0.406548         1.304678         1.708977
 H        -0.231995         2.218246         0.274048
 H        -2.518327         1.580738         0.459055
