19
Iteration:   664
 C        -3.904971        -0.257044         2.107018
 C        -2.466087        -0.062691         1.654273
 C        -1.720142        -1.392184         1.258676
 C        -0.719262        -1.271043         0.034976
 C         0.145578         0.010878         0.100014
 O         1.345487         0.229037         0.143206
 C        -0.825658         1.195383         0.000196
 C        -2.044402         1.242400         0.966386
 O        -1.671649         0.881021         2.379580
 H        -4.087518        -1.119147         2.801153
 H        -4.219767         0.586271         2.652600
 H        -4.539922        -0.504620         1.247917
 H        -1.216760        -1.708910         2.192879
 H        -2.396203        -2.190525         1.029147
 H        -0.110822        -2.239497        -0.048526
 H        -1.347696        -1.190432        -0.917394
 H        -0.099058         2.106700         0.188808
 H        -1.303930         1.256576        -0.977472
 H        -2.873813         1.943535         0.807434
