19
Iteration:   113
 C        -3.821613        -0.021405         2.232645
 C        -2.381996        -0.087624         1.614688
 C        -1.765015        -1.354433         1.054237
 C        -0.738479        -1.348829        -0.077335
 C        -0.010834         0.037613         0.088368
 O         1.068877         0.135362         0.755388
 C        -0.934689         1.187290        -0.314312
 C        -1.852508         1.133164         0.967778
 O        -1.393900         0.848776         2.240661
 H        -4.130692        -0.759366         3.036348
 H        -3.998254         0.911941         2.642649
 H        -4.431619         0.033680         1.370340
 H        -1.463403        -1.837646         2.028604
 H        -2.637610        -1.976482         0.688892
 H         0.024389        -2.262052         0.026704
 H        -1.166485        -1.307342        -1.031214
 H        -0.620319         2.273234        -0.498864
 H        -1.583119         0.987015        -1.156303
 H        -2.561670         1.921537         0.976161
