19
Iteration:  1912charge 0 multiplicity 1
 C        -3.932971        -0.325965         1.874719
 C        -2.450679        -0.034202         1.708881
 C        -1.686297        -1.329947         1.323428
 C        -0.650517        -1.222125         0.098023
 C         0.155973         0.038706         0.162316
 O         1.347681         0.081149        -0.086087
 C        -0.883289         1.227807         0.133000
 C        -2.012319         1.263492         1.051759
 O        -1.708423         0.899846         2.450580
 H        -4.103643        -0.763728         2.882819
 H        -4.658223         0.469596         1.718116
 H        -4.218016        -1.149369         1.201421
 H        -1.222993        -1.627734         2.260173
 H        -2.523711        -1.959460         1.028450
 H         0.070001        -2.040217         0.282093
 H        -1.244789        -1.198319        -0.862457
 H        -0.506080         2.287504         0.135289
 H        -1.295588         1.102852        -0.941706
 H        -2.835410         2.055459         1.037315
