19
Iteration:  2965charge 0 multiplicity 1
 C        -3.895974        -0.309497         1.963587
 C        -2.415665        -0.090479         1.638194
 C        -1.785006        -1.394647         1.178454
 C        -0.497333        -1.265678         0.238979
 C         0.026245         0.104198         0.129081
 O         1.217495         0.337909         0.095480
 C        -1.031817         1.239550        -0.083960
 C        -1.951877         1.211290         1.089643
 O        -1.553165         0.753543         2.463201
 H        -4.154396        -1.021495         2.695597
 H        -4.456245         0.655889         2.300530
 H        -4.256558        -0.597373         0.955312
 H        -1.426842        -2.025298         1.971290
 H        -2.523068        -1.848771         0.554963
 H         0.272167        -1.949820         0.466469
 H        -0.714964        -1.654368        -0.777709
 H        -0.497716         2.187550        -0.206666
 H        -1.404364         1.132730        -1.038890
 H        -2.686159         2.010235         1.099356
