19
Iteration:   737charge 0 multiplicity 1
 C        -3.672844        -0.309297         2.376748
 C        -2.425092        -0.037882         1.525991
 C        -1.942888        -1.414629         0.948100
 C        -0.663784        -1.288210         0.033942
 C         0.022062         0.064603         0.092699
 O         1.032553         0.316538         0.685571
 C        -0.877556         1.175744        -0.252824
 C        -1.948183         1.197699         0.864158
 O        -1.404357         0.861723         2.218180
 H        -3.452268        -0.472834         3.421793
 H        -4.227226         0.656711         2.627562
 H        -4.270886        -1.118064         2.032745
 H        -1.700736        -1.953744         1.877086
 H        -2.822058        -2.001875         0.481780
 H        -0.060358        -2.110951         0.259571
 H        -0.919785        -1.326451        -0.994366
 H        -0.397151         2.071080        -0.218786
 H        -1.375862         0.902708        -1.190043
 H        -2.562337         2.136303         0.980024
