19
Iteration:   342charge 0 multiplicity 1
 C        -3.855264        -0.314946         1.290322
 C        -2.362699        -0.040568         1.452926
 C        -1.630359        -1.331564         1.388815
 C        -0.205676        -1.223157         1.006293
 C         0.033562         0.133849         0.160399
 O         0.282593        -0.145639        -1.029646
 C        -0.213471         1.411371         0.834152
 C        -1.699747         1.262590         1.166180
 O        -2.061966         0.871098         2.484716
 H        -4.275860        -1.024418         2.076037
 H        -4.588343         0.570248         1.368031
 H        -4.038052        -0.635849         0.292339
 H        -1.866368        -1.822007         2.332434
 H        -2.108606        -1.873853         0.582886
 H         0.376237        -1.093846         1.980870
 H         0.177816        -2.061089         0.497230
 H         0.488669         1.451264         1.767461
 H        -0.154882         2.284309         0.222296
 H        -2.219845         2.103813         0.773445
