19
Iteration:  1369charge 0 multiplicity 1
 C        -3.883272        -0.285510         2.385151
 C        -2.519584        -0.111257         1.502095
 C        -1.696333        -1.373131         1.151940
 C        -0.685517        -1.266993        -0.049961
 C         0.036756         0.086698         0.188151
 O         1.237098         0.138013         0.414854
 C        -0.791713         1.325176        -0.072130
 C        -1.999493         1.240848         0.872426
 O        -1.639323         0.831936         2.185097
 H        -3.534425        -0.880733         3.309566
 H        -4.244176         0.652289         2.749913
 H        -4.568635        -0.977574         1.841257
 H        -1.067197        -1.605952         2.017347
 H        -2.381980        -2.168677         0.933435
 H        -0.001819        -2.193897        -0.058251
 H        -1.243180        -1.117997        -0.948834
 H        -0.092956         2.193643         0.053923
 H        -1.116924         1.410000        -1.125224
 H        -2.686619         2.063868         0.692901
