19
Iteration:  3844
 C        -3.947980        -0.537839         1.807070
 C        -2.456909        -0.203949         1.450369
 C        -1.699107        -1.332480         0.935701
 C        -0.224236        -0.957643         1.043083
 C         0.113214         0.307729         0.093972
 O         0.831221         0.110101        -0.925685
 C        -0.625836         1.529396         0.485980
 C        -1.933484         1.226562         1.281230
 O        -1.852691         0.510620         2.534454
 H        -3.845614        -1.072057         2.777577
 H        -4.510310         0.449207         2.034843
 H        -4.462525        -1.237006         1.169252
 H        -2.063146        -2.249917         1.480482
 H        -2.117495        -1.694876        -0.073636
 H        -0.086652        -0.815061         2.098302
 H         0.406080        -1.804921         0.687418
 H        -0.002938         2.356684         0.827931
 H        -1.003362         1.941324        -0.522189
 H        -2.536091         2.088597         1.376601
