19
Iteration:   212charge 0 multiplicity 1
 C        -3.936303        -0.169106         1.987950
 C        -2.530986        -0.016834         1.547624
 C        -1.925973        -1.328521         0.964274
 C        -0.435213        -1.370752         0.655632
 C         0.144843        -0.012744         0.130460
 O         1.265449         0.038381        -0.399133
 C        -0.684093         1.197951         0.255336
 C        -1.976860         1.310052         1.076143
 O        -1.780449         0.923830         2.489875
 H        -4.030121        -0.874422         2.893735
 H        -4.356123         0.867143         2.251448
 H        -4.576495        -0.602271         1.227425
 H        -2.303832        -2.215023         1.435337
 H        -2.435571        -1.346221        -0.007422
 H         0.098359        -1.585667         1.670913
 H        -0.191257        -2.127596        -0.044654
 H        -0.048192         2.096041         0.387212
 H        -0.868301         1.296816        -0.807916
 H        -2.754785         2.057935         0.919519
