19
Iteration:  1059
 C        -3.694300        -0.254423         1.017184
 C        -2.286146        -0.130875         1.471851
 C        -1.435320        -1.459565         1.236249
 C         0.046100        -1.164566         1.048188
 C        -0.005426         0.121273         0.212806
 O        -0.136535        -0.112922        -0.992101
 C        -0.339052         1.511103         0.857315
 C        -1.755724         1.306650         1.343427
 O        -2.062064         0.805572         2.630918
 H        -4.235369        -1.186119         1.187855
 H        -4.351283         0.500917         1.673843
 H        -3.732983        -0.048159        -0.069508
 H        -1.624895        -2.270568         2.035148
 H        -1.996582        -1.763858         0.277910
 H         0.442085        -1.060798         2.059156
 H         0.501191        -2.131275         0.573471
 H         0.528117         1.639588         1.565858
 H        -0.229787         2.282131         0.188803
 H        -2.381735         2.075929         0.819214
