19
Iteration:    87charge 0 multiplicity 1
 C        -3.635829        -0.171123         2.238567
 C        -2.312200         0.044552         1.517989
 C        -1.789546        -1.386763         1.102724
 C        -0.801678        -1.354721        -0.072487
 C        -0.082420        -0.032756         0.148070
 O         0.951344         0.104144         0.796128
 C        -0.877823         1.163674        -0.212306
 C        -1.898882         1.292816         0.851953
 O        -1.438963         0.892744         2.159430
 H        -3.655075        -1.222705         2.576265
 H        -3.788497         0.391507         3.217995
 H        -4.464477         0.137252         1.498289
 H        -1.287064        -1.598491         1.999109
 H        -2.552430        -2.091469         0.997359
 H        -0.098990        -2.116686        -0.072029
 H        -1.277236        -1.255061        -1.074704
 H        -0.233971         2.013755        -0.125815
 H        -1.340467         1.209036        -1.199770
 H        -2.561749         2.197006         0.808770
