19
Iteration:  1438
 C        -3.942604        -0.335675         1.703553
 C        -2.443079        -0.068729         1.610409
 C        -1.460809        -1.243455         1.513741
 C        -0.758538        -1.289183         0.198463
 C         0.095787        -0.033215         0.023508
 O         1.302323         0.034763        -0.243018
 C        -0.750815         1.307093         0.186311
 C        -1.945844         1.225085         1.151762
 O        -1.925583         0.938782         2.541986
 H        -4.229640        -0.990488         2.512744
 H        -4.387702         0.754236         1.982611
 H        -4.304232        -0.751257         0.769776
 H        -0.771875        -0.927638         2.357917
 H        -1.992449        -2.214254         1.748547
 H        -0.077124        -2.083746         0.087079
 H        -1.533043        -1.311461        -0.609738
 H        -0.103185         2.046585         0.427505
 H        -1.163165         1.578107        -0.808582
 H        -2.837993         1.860223         0.889283
