19
Iteration:  2808
 C        -3.844997        -0.267784         2.082181
 C        -2.442058        -0.126664         1.540343
 C        -1.734313        -1.478746         1.302798
 C        -0.699127        -1.265202         0.155979
 C         0.039922         0.140603         0.063452
 O         1.156142         0.424273         0.375604
 C        -0.971408         1.255952        -0.151131
 C        -1.991148         1.126615         0.962756
 O        -1.421041         0.745143         2.285819
 H        -3.935476        -1.132093         2.863198
 H        -4.217314         0.670845         2.528291
 H        -4.516623        -0.458484         1.176698
 H        -1.174371        -1.727042         2.198356
 H        -2.411610        -2.329218         1.015670
 H         0.132920        -2.078414         0.040091
 H        -1.163583        -1.434005        -0.834842
 H        -0.350583         2.222353        -0.079874
 H        -1.539176         1.215049        -1.026459
 H        -2.702974         2.013040         0.862864
