19
Iteration:   394
 C        -3.849445        -0.162250         1.060952
 C        -2.428000        -0.063886         1.619849
 C        -1.467961        -1.312473         1.644908
 C        -0.031828        -1.260970         0.861440
 C         0.090541         0.003322         0.091757
 O         0.134002         0.018613        -1.125842
 C        -0.167697         1.200609         0.972421
 C        -1.753132         1.159789         1.172128
 O        -2.227973         0.988886         2.517641
 H        -4.610560        -0.438768         1.845959
 H        -4.183422         0.713652         0.719579
 H        -3.968012        -0.820172         0.178289
 H        -1.309884        -1.558871         2.767042
 H        -1.913136        -2.265005         1.148926
 H         0.863211        -1.297134         1.555924
 H         0.092621        -2.033361         0.183652
 H         0.134145         1.196978         2.019448
 H         0.086682         2.083814         0.450054
 H        -2.293402         1.813727         0.546532
