19
Iteration:  3354charge 0 multiplicity 1
 C        -3.789883        -0.717091         1.342908
 C        -2.384820        -0.145473         1.676625
 C        -1.316606        -1.247725         1.841354
 C        -0.682732        -1.190768         0.338735
 C         0.032366         0.103060        -0.032829
 O         0.844769         0.234293        -0.965219
 C        -0.353917         1.321724         0.853437
 C        -1.863887         1.182735         1.220389
 O        -2.304459         1.049555         2.537864
 H        -4.335738        -0.802759         2.298837
 H        -4.346905        -0.119953         0.636598
 H        -3.627123        -1.718486         0.905362
 H        -0.392795        -1.097548         2.393745
 H        -1.617608        -2.225205         2.185850
 H        -0.127965        -2.127808         0.229254
 H        -1.467357        -1.244521        -0.526950
 H         0.223650         1.340920         1.835049
 H        -0.092080         2.250522         0.289014
 H        -2.425612         1.823649         0.476672
