19
Iteration:  3338
 C        -3.724831        -0.670051         1.247066
 C        -2.390503        -0.161148         1.668933
 C        -1.245109        -1.120034         1.810199
 C        -0.720705        -1.303749         0.418609
 C        -0.031673         0.106198        -0.024145
 O         0.782015         0.266306        -0.943887
 C        -0.344635         1.290365         0.832222
 C        -1.788062         1.199510         1.150207
 O        -2.295228         0.959600         2.586093
 H        -4.330560        -0.996486         2.106162
 H        -4.386372         0.189791         0.905753
 H        -3.641315        -1.563664         0.606129
 H        -0.789871        -0.825432         2.809540
 H        -1.784621        -2.064079         2.178554
 H         0.155775        -1.918812         0.168480
 H        -1.571843        -1.620806        -0.103488
 H         0.423694         1.303751         1.661306
 H        -0.272197         2.238591         0.259370
 H        -2.520598         1.843024         0.666263
