19
Iteration:  2941
 C        -3.797963        -0.179965         2.179795
 C        -2.401148        -0.185745         1.573035
 C        -1.809613        -1.494252         1.052303
 C        -0.537198        -1.328597         0.134603
 C         0.086115         0.135097         0.033429
 O         1.186293         0.426219         0.334262
 C        -0.961004         1.228524        -0.045433
 C        -1.985475         1.118335         1.026808
 O        -1.632256         0.805825         2.340188
 H        -3.778809        -0.581243         3.209686
 H        -4.062734         0.842642         2.425439
 H        -4.637483        -0.658238         1.552498
 H        -1.417813        -2.027955         1.856003
 H        -2.634515        -2.017218         0.512969
 H         0.209369        -2.065412         0.354462
 H        -0.723374        -1.635420        -0.934833
 H        -0.480690         2.275476        -0.232012
 H        -1.472035         1.111882        -0.991860
 H        -2.828874         1.812272         0.806780
