19
Iteration:  1864
 C        -3.914735        -0.323267         1.852689
 C        -2.453187        -0.125628         1.581839
 C        -1.404039        -1.244297         1.475240
 C        -0.767908        -1.332932         0.113846
 C         0.042010         0.009929         0.007620
 O         1.246697         0.019851        -0.246244
 C        -0.603661         1.375982         0.438283
 C        -2.039638         1.202875         0.975363
 O        -1.985850         0.959712         2.425563
 H        -4.089663        -0.989453         2.731747
 H        -4.416420         0.667068         2.026715
 H        -4.451559        -0.842898         0.975044
 H        -0.639729        -0.944356         2.181200
 H        -1.918054        -2.126806         1.784846
 H        -0.095605        -2.189539         0.097847
 H        -1.528078        -1.414251        -0.634798
 H         0.153485         1.838229         1.188851
 H        -0.528811         2.010209        -0.423158
 H        -2.817888         1.847728         0.647272
