19
Iteration:  3232charge 0 multiplicity 1
 C        -3.923357        -0.395923         1.339739
 C        -2.325844        -0.153830         1.551062
 C        -1.410543        -1.338416         1.478124
 C        -0.015612        -1.218191         0.799328
 C         0.140638         0.083920         0.106099
 O         0.360681         0.120496        -1.079431
 C        -0.382647         1.300073         0.930983
 C        -1.930109         1.232336         1.141921
 O        -2.243775         0.944450         2.496327
 H        -3.909251        -1.515858         1.486605
 H        -4.273407         0.162872         2.123618
 H        -4.345735         0.037936         0.408401
 H        -1.372571        -1.446051         2.594708
 H        -1.942756        -2.139386         1.088681
 H         0.826493        -1.463514         1.501044
 H         0.051525        -2.058671         0.037129
 H        -0.002638         1.561988         1.900559
 H         0.006796         2.080696         0.240408
 H        -2.628245         1.908500         0.543858
