19
Iteration:  2830charge 0 multiplicity 1
 C        -3.718261        -0.177281         2.174874
 C        -2.355823        -0.137308         1.627668
 C        -1.642988        -1.408725         1.112889
 C        -0.569447        -1.249248         0.017802
 C        -0.019362         0.120995         0.132489
 O         1.113758         0.312774         0.528200
 C        -1.087881         1.165873        -0.261383
 C        -2.008003         1.149622         0.994650
 O        -1.558355         0.803447         2.327004
 H        -3.907891        -0.881427         3.089792
 H        -4.091577         0.789026         2.457148
 H        -4.451149        -0.489116         1.331608
 H        -1.089441        -1.991400         1.798928
 H        -2.494578        -1.994737         0.676867
 H         0.154207        -2.142516        -0.039475
 H        -0.927446        -1.288613        -1.028473
 H        -0.666215         2.199657        -0.530584
 H        -1.603918         0.757104        -1.046628
 H        -2.824497         1.905265         0.834345
