19
Iteration:   285
 C        -4.025763        -0.024667         1.482350
 C        -2.472466        -0.065321         1.458931
 C        -1.663226        -1.365801         1.056085
 C        -0.166335        -0.985880         1.178732
 C         0.102011         0.051775         0.126251
 O         0.738165        -0.221395        -0.925782
 C        -0.558100         1.332060         0.394411
 C        -1.846285         1.291165         1.276181
 O        -1.889321         0.601119         2.677442
 H        -4.416907        -0.960585         2.010315
 H        -4.247286         0.780051         2.078087
 H        -4.633427        -0.064238         0.533407
 H        -2.018571        -2.181166         1.735690
 H        -1.992875        -1.702783         0.050429
 H         0.100972        -0.586645         2.191253
 H         0.392264        -1.873929         0.955023
 H         0.309826         1.993473         0.758784
 H        -0.841842         1.871334        -0.515987
 H        -2.533633         2.110150         1.274547
