19
Iteration:   487
 C        -3.688714        -0.402275         1.133624
 C        -2.339506        -0.059370         1.710813
 C        -1.251145        -1.222622         1.910023
 C        -0.611455        -1.313120         0.516744
 C        -0.079703         0.014464        -0.005395
 O         0.589774         0.091768        -0.992820
 C        -0.205691         1.179178         0.906947
 C        -1.721688         1.202962         1.189330
 O        -2.433464         1.113275         2.457657
 H        -4.111316        -1.100182         1.810093
 H        -4.528532         0.503291         1.314059
 H        -3.897675        -0.552683         0.101748
 H        -0.533613        -1.049280         2.667082
 H        -1.752377        -2.151859         2.040799
 H         0.197353        -2.033721         0.513069
 H        -1.471134        -1.821653        -0.146400
 H         0.222821         0.692824         1.869782
 H         0.517424         2.004496         0.500450
 H        -2.257287         1.733211         0.316644
