19
Iteration:  2953
 C        -3.850450        -0.227672         2.050790
 C        -2.405124        -0.154174         1.619793
 C        -1.767888        -1.523745         1.106172
 C        -0.538276        -1.333721         0.174028
 C         0.025211         0.134393         0.057822
 O         1.237903         0.406327         0.223977
 C        -0.966021         1.244135        -0.144997
 C        -1.970216         1.159599         1.079762
 O        -1.603874         0.829335         2.449650
 H        -3.917760        -0.893264         2.894402
 H        -4.202442         0.809645         2.273190
 H        -4.560008        -0.681743         1.269729
 H        -1.709553        -2.190950         1.921986
 H        -2.577542        -2.006657         0.551949
 H         0.281816        -1.875535         0.523918
 H        -0.908555        -1.581507        -0.849018
 H        -0.399586         2.217942        -0.096540
 H        -1.654124         1.118565        -0.915485
 H        -2.656778         2.018302         1.131153
