19
Iteration:   443
 C        -3.780454        -0.481217         0.952851
 C        -2.373627         0.054249         1.542675
 C        -1.419328        -1.163189         1.805548
 C        -0.424588        -1.355713         0.760125
 C         0.018033        -0.055798         0.117579
 O         0.279301         0.107414        -1.074012
 C        -0.188351         1.198902         0.909277
 C        -1.707034         1.260498         1.225259
 O        -2.162869         1.011331         2.596731
 H        -4.296976        -1.283439         1.441485
 H        -4.582231         0.439443         0.725034
 H        -3.619923        -0.769132        -0.077494
 H        -0.897327        -0.931291         2.689435
 H        -1.938507        -2.068179         1.934248
 H         0.425647        -1.885177         1.179191
 H        -0.685951        -2.009827        -0.187125
 H         0.352967         1.086212         1.906467
 H         0.131424         2.126963         0.304138
 H        -2.139205         2.191406         0.734313
