19
Iteration:  4724
 C        -3.773933        -0.559689         1.368828
 C        -2.360207        -0.111716         1.771759
 C        -1.242935        -1.231918         1.791734
 C        -0.590677        -1.245041         0.503576
 C         0.034690         0.177174        -0.108161
 O         0.900893         0.021357        -0.928677
 C        -0.550175         1.344147         0.643252
 C        -1.993387         1.151571         1.110098
 O        -2.210117         1.064146         2.620912
 H        -3.976122        -0.464854         0.265725
 H        -4.054999        -1.559984         1.462604
 H        -4.485448         0.118744         1.792291
 H        -0.539554        -1.212334         2.672871
 H        -1.785808        -2.104716         2.157090
 H         0.238792        -1.899887         0.497691
 H        -1.277105        -1.701956        -0.271307
 H        -0.043244         1.445388         1.602012
 H        -0.493336         2.330070         0.028122
 H        -2.785196         1.678238         0.519064
