19
Iteration:  2314charge 0 multiplicity 1
 C        -3.923792        -0.267446         1.501225
 C        -2.401410        -0.128526         1.449710
 C        -1.630150        -1.352202         0.992301
 C        -0.119527        -1.085661         1.169455
 C         0.043557         0.064448         0.217386
 O         0.456901        -0.031384        -0.946968
 C        -0.526352         1.444378         0.638822
 C        -1.852425         1.208615         1.222729
 O        -1.805091         0.726138         2.540763
 H        -4.329921        -0.550083         2.476164
 H        -4.499418         0.735623         1.292713
 H        -4.308445        -0.888343         0.700641
 H        -1.951529        -2.362932         1.435224
 H        -1.835280        -1.598284        -0.097163
 H         0.186532        -0.775058         2.239078
 H         0.494479        -1.945661         0.846117
 H         0.114245         1.926738         1.356324
 H        -0.637298         2.001910        -0.274899
 H        -2.609568         2.008512         0.997295
