19
Iteration:  1837
 C        -3.962202        -0.432818         1.728868
 C        -2.444801        -0.024152         1.644980
 C        -1.338028        -1.140815         1.560366
 C        -0.749891        -1.302953         0.109595
 C         0.110516        -0.029726        -0.063517
 O         1.254875        -0.018140        -0.449610
 C        -0.554800         1.159951         0.559475
 C        -2.032643         1.227516         1.078494
 O        -2.137787         1.126844         2.509923
 H        -4.044839        -1.310349         2.375008
 H        -4.687335         0.398622         2.079075
 H        -4.201578        -0.810825         0.758876
 H        -0.492107        -0.751951         2.265455
 H        -1.982644        -2.129946         1.840671
 H        -0.108821        -2.217625        -0.007626
 H        -1.542733        -1.401309        -0.710431
 H         0.061787         1.304204         1.409710
 H        -0.343000         2.027714        -0.145294
 H        -2.726605         1.956539         0.533164
