19
Iteration:  1304charge 0 multiplicity 1
 C        -3.745302        -0.175203         2.296390
 C        -2.412529        -0.030988         1.543641
 C        -2.013508        -1.398953         0.856507
 C        -0.568256        -1.353621         0.141148
 C        -0.000425         0.064388         0.164741
 O         1.070946         0.440655         0.586919
 C        -1.042782         1.139428        -0.191705
 C        -1.883304         1.198211         1.010164
 O        -1.285875         0.713536         2.181946
 H        -3.657796        -0.906315         3.172497
 H        -4.361944         0.681819         2.522058
 H        -4.462113        -0.752105         1.635585
 H        -1.988754        -2.239738         1.622097
 H        -2.828292        -1.669750         0.158671
 H         0.156570        -2.051355         0.695555
 H        -0.617325        -1.556036        -0.899091
 H        -0.570684         2.058825        -0.359820
 H        -1.574573         0.857256        -1.071617
 H        -2.493272         2.084173         1.177134
