19
Iteration:   639charge 0 multiplicity 1
 C        -3.899270        -0.410382         1.949569
 C        -2.476720        -0.039103         1.570916
 C        -1.630139        -1.292536         1.286756
 C        -0.612757        -1.251503         0.169803
 C         0.069912         0.057815         0.107838
 O         1.263584        -0.011803        -0.102216
 C        -0.764284         1.322367         0.171714
 C        -2.028705         1.230505         1.062447
 O        -1.772246         0.983399         2.444889
 H        -4.058753        -1.320111         2.516227
 H        -4.208551         0.583743         2.578051
 H        -4.568426        -0.528233         1.140248
 H        -1.222687        -1.532276         2.305216
 H        -2.326665        -2.225085         1.049025
 H         0.140384        -1.992038         0.266566
 H        -1.125345        -1.458279        -0.758061
 H        -0.151657         2.253880         0.342779
 H        -1.320979         1.376796        -0.828269
 H        -2.755491         2.174573         0.870305
