19
Iteration:    82
 C        -3.626893        -0.205704         2.260407
 C        -2.349036         0.023292         1.473795
 C        -1.777080        -1.356232         1.092878
 C        -0.827457        -1.381859        -0.068808
 C        -0.077592        -0.057775         0.220245
 O         0.944918         0.089558         0.771584
 C        -0.862702         1.245153        -0.208160
 C        -1.901457         1.281923         0.865355
 O        -1.436297         0.936183         2.139387
 H        -3.728777        -1.264463         2.508994
 H        -3.669721         0.403989         3.187946
 H        -4.347870         0.080884         1.539747
 H        -1.199406        -1.610726         2.072205
 H        -2.586946        -2.177458         0.973375
 H        -0.055575        -2.253791        -0.069667
 H        -1.322499        -1.349329        -1.070399
 H        -0.135603         2.101528        -0.114699
 H        -1.345632         1.184300        -1.231500
 H        -2.524171         2.173208         0.807926
