19
Iteration:  4784charge 0 multiplicity 1
 C        -3.766307        -0.591462         1.463922
 C        -2.359286        -0.061320         1.616297
 C        -1.325452        -1.134922         1.703513
 C        -0.400852        -1.353656         0.438552
 C        -0.015688         0.096569        -0.027538
 O         0.702287         0.118797        -1.014628
 C        -0.468544         1.215797         0.909161
 C        -1.920673         1.230075         1.156473
 O        -2.279570         1.064792         2.500824
 H        -3.565463        -1.551805         1.056411
 H        -4.395949        -0.474752         2.420442
 H        -4.353138        -0.005635         0.735345
 H        -0.637764        -0.641483         2.355441
 H        -1.788002        -2.034790         2.164127
 H         0.569603        -1.971030         0.577923
 H        -0.980866        -1.828142        -0.368843
 H         0.164467         1.085237         1.834675
 H        -0.047810         2.089107         0.533560
 H        -2.531528         1.876045         0.551108
