19
Iteration:  1198
 C        -3.967345        -0.323653         1.961134
 C        -2.539964        -0.079580         1.498942
 C        -1.916313        -1.346478         0.901016
 C        -0.387940        -1.122691         0.755754
 C         0.146947         0.154397         0.023595
 O         1.266186         0.060762        -0.499559
 C        -0.813478         1.405073         0.222833
 C        -1.932599         1.289395         1.242736
 O        -1.733633         0.609790         2.536281
 H        -3.943804        -1.155876         2.629302
 H        -4.474031         0.495230         2.574539
 H        -4.548082        -0.621283         1.097348
 H        -1.974855        -2.220887         1.571883
 H        -2.480534        -1.649830         0.005223
 H        -0.154146        -1.048648         1.807163
 H         0.235669        -1.965390         0.357249
 H        -0.165193         2.305139         0.307470
 H        -1.322527         1.545480        -0.832397
 H        -2.605908         2.146157         1.401256
