19
Iteration:  4333charge 0 multiplicity 1
 C        -3.710489        -0.376670         2.378816
 C        -2.495109        -0.103974         1.490784
 C        -1.900663        -1.300491         0.789155
 C        -0.406540        -1.323171         0.306901
 C        -0.031405         0.118016         0.148501
 O         1.158100         0.389563         0.215442
 C        -1.068618         1.230056        -0.010946
 C        -2.050174         1.236076         1.031787
 O        -1.457052         0.706824         2.203518
 H        -3.352714        -0.221162         3.459681
 H        -4.578818         0.299854         2.224140
 H        -4.068477        -1.409836         2.367300
 H        -1.947464        -2.099372         1.656254
 H        -2.555792        -1.622160         0.003129
 H         0.162595        -1.691794         1.122912
 H        -0.144156        -1.753289        -0.710340
 H        -0.445297         2.054663         0.124536
 H        -1.443086         1.277400        -1.053720
 H        -2.728286         2.154152         1.270378
