19
Iteration:    66charge 0 multiplicity 1
 C        -3.700223        -0.256159         2.264411
 C        -2.433274        -0.058412         1.412943
 C        -1.753355        -1.385067         1.154470
 C        -0.802241        -1.359558        -0.049104
 C        -0.000897         0.005379         0.145740
 O         1.046424        -0.052377         0.731455
 C        -0.806678         1.312769        -0.165003
 C        -2.021018         1.321165         0.859906
 O        -1.431871         1.051023         2.124454
 H        -3.694674        -1.254804         2.768284
 H        -3.501056         0.317124         3.191277
 H        -4.736047         0.085567         2.000766
 H        -1.291963        -1.751292         2.026965
 H        -2.559946        -2.017557         0.948963
 H        -0.168381        -2.216747         0.062322
 H        -1.378985        -1.381800        -0.971037
 H        -0.168985         2.179238        -0.037144
 H        -1.092102         1.352324        -1.197604
 H        -2.867947         2.032960         0.832284
