19
Iteration:  1044
 C        -3.777242        -0.122797         0.952587
 C        -2.315471        -0.145672         1.500695
 C        -1.446525        -1.459120         1.348028
 C         0.102829        -1.149272         1.089363
 C         0.075040         0.107132         0.164518
 O        -0.202136        -0.057971        -1.016551
 C        -0.286595         1.441816         0.844096
 C        -1.778558         1.214353         1.314980
 O        -2.032027         0.720928         2.622886
 H        -4.236671        -1.103964         1.164705
 H        -4.354143         0.640458         1.341420
 H        -3.695224         0.158729        -0.120510
 H        -1.547220        -2.026012         2.211652
 H        -1.742106        -1.974460         0.492194
 H         0.629189        -0.908954         2.029992
 H         0.658115        -1.827569         0.533184
 H         0.140203         1.790344         1.748435
 H        -0.385924         2.277689        -0.028049
 H        -2.499453         1.997106         1.129676
