19
Iteration:  2576charge 0 multiplicity 1
 C        -3.768197        -0.570087         1.486516
 C        -2.403127        -0.119935         1.785189
 C        -1.368150        -1.238033         1.748267
 C        -0.847852        -1.287361         0.240070
 C         0.074313         0.054650        -0.078432
 O         1.051650         0.222791        -0.711506
 C        -0.451438         1.226255         0.738151
 C        -1.878009         1.069621         1.078964
 O        -2.211114         1.166503         2.487270
 H        -4.106191        -1.453359         2.032612
 H        -4.628143         0.234846         1.659908
 H        -3.899594        -0.720758         0.439363
 H        -0.552713        -1.081398         2.477339
 H        -1.779427        -2.235607         2.004462
 H        -0.336482        -2.254746         0.038688
 H        -1.699166        -1.206085        -0.455628
 H         0.326300         1.373692         1.673670
 H        -0.365511         2.157889         0.087107
 H        -2.562169         1.632387         0.424171
