19
Iteration:  1348
 C        -3.674184        -0.185582         2.340077
 C        -2.461544        -0.120185         1.517661
 C        -1.841029        -1.393347         1.039742
 C        -0.664457        -1.203128        -0.000967
 C         0.078229         0.181135         0.067428
 O         1.206264         0.120009         0.600101
 C        -0.916512         1.272024        -0.169763
 C        -2.074420         1.149284         0.904129
 O        -1.561568         0.765893         2.227955
 H        -3.418586        -0.535884         3.396004
 H        -4.110406         0.844306         2.396458
 H        -4.461810        -0.906417         1.952680
 H        -1.404657        -1.933102         1.925335
 H        -2.507591        -2.095282         0.528178
 H         0.171040        -1.902502         0.297256
 H        -1.120022        -1.397087        -0.934372
 H        -0.543731         2.250651        -0.053132
 H        -1.426809         1.327591        -1.117828
 H        -2.684254         2.051447         0.783586
