19
Iteration:  3052charge 0 multiplicity 1
 C        -4.018334        -0.360344         1.896267
 C        -2.561098        -0.147595         1.583657
 C        -1.704912        -1.445769         1.154556
 C        -0.254213        -1.298245         0.642432
 C         0.141450         0.047108         0.033107
 O         1.141685         0.246360        -0.635531
 C        -0.653387         1.394698         0.451254
 C        -2.051180         1.177394         1.083776
 O        -1.886398         0.933503         2.482557
 H        -4.219141        -1.148875         2.577743
 H        -4.567823         0.573951         2.377680
 H        -4.551793        -0.567838         0.908327
 H        -1.796404        -2.218110         1.874654
 H        -2.312431        -1.881221         0.345804
 H         0.409925        -1.530696         1.441333
 H        -0.137097        -1.934294        -0.285098
 H        -0.109897         1.716111         1.438775
 H        -0.627207         2.068304        -0.444263
 H        -2.802699         1.927742         0.846801
