19
Iteration:  4303charge 0 multiplicity 1
 C        -3.719955        -0.308969         2.410708
 C        -2.437286        -0.201969         1.618654
 C        -2.118142        -1.385005         0.806651
 C        -0.547858        -1.224028         0.420455
 C         0.105581         0.323739         0.198357
 O         1.286988         0.490872         0.149052
 C        -1.028905         1.267567        -0.111769
 C        -2.013476         1.048382         0.956875
 O        -1.463236         0.547498         2.199506
 H        -3.561611        -0.358467         3.513931
 H        -4.353737         0.479339         2.361259
 H        -4.317309        -1.148090         2.189089
 H        -2.304251        -2.345979         1.234075
 H        -2.748946        -1.316921        -0.141422
 H        -0.005970        -1.468403         1.294891
 H        -0.078641        -1.689085        -0.472503
 H        -0.690637         2.330195        -0.306025
 H        -1.287027         0.966515        -1.164692
 H        -2.544709         1.985080         1.107813
