19
Iteration:  4041charge 0 multiplicity 1
 C        -3.898240        -0.482967         1.467494
 C        -2.410131        -0.153287         1.505952
 C        -1.521231        -1.362732         1.117145
 C        -0.070473        -1.023209         1.068011
 C         0.096573         0.175153         0.133149
 O         0.282303         0.172005        -1.098440
 C        -0.443914         1.443479         0.719782
 C        -1.819255         1.224237         1.248667
 O        -1.949709         0.624776         2.591770
 H        -4.129455        -1.027424         2.467026
 H        -4.623452         0.359105         1.344835
 H        -4.150660        -1.107520         0.593018
 H        -1.669212        -2.009922         1.973328
 H        -2.045372        -1.830279         0.224169
 H         0.414529        -0.851141         2.014159
 H         0.382515        -1.901387         0.537505
 H         0.160897         1.886152         1.546194
 H        -0.329963         2.092848        -0.094900
 H        -2.411305         2.072370         1.143777
