19
Iteration:  2708
 C        -3.991197        -0.418680         1.869681
 C        -2.472175        -0.128355         1.495554
 C        -1.656783        -1.338251         1.393779
 C        -0.500038        -1.252776         0.437534
 C         0.140224         0.112955         0.085088
 O         1.192993         0.190427        -0.477246
 C        -0.693496         1.367013         0.333109
 C        -2.038144         1.220247         1.068538
 O        -1.870162         0.828044         2.447328
 H        -4.072313        -0.619664         2.994461
 H        -4.626537         0.561634         1.658588
 H        -4.419948        -1.253439         1.323340
 H        -1.293625        -1.409311         2.414689
 H        -2.245823        -2.225173         1.061944
 H         0.339155        -2.012686         0.735340
 H        -0.695784        -1.711199        -0.555674
 H        -0.028365         1.984715         1.063155
 H        -0.656321         1.864054        -0.621984
 H        -2.777139         2.065467         0.982190
