19
Iteration:  1926
 C        -3.986637        -0.269341         1.991195
 C        -2.506252        -0.056585         1.579180
 C        -1.701770        -1.331404         1.226191
 C        -0.578640        -1.334291         0.157500
 C         0.076344         0.055651         0.052763
 O         1.310057         0.186564         0.033134
 C        -0.850850         1.240555         0.050830
 C        -1.993329         1.236278         1.130237
 O        -1.681393         0.868322         2.448191
 H        -4.109857        -0.695158         2.952519
 H        -4.461088         0.769054         1.989619
 H        -4.410086        -0.848126         1.239059
 H        -1.093914        -1.606561         2.157585
 H        -2.287193        -2.305978         1.062744
 H         0.175567        -2.147628         0.222971
 H        -0.963643        -1.591259        -0.873378
 H        -0.246122         2.088770        -0.039885
 H        -1.474956         1.063608        -0.887654
 H        -2.533350         2.193326         1.020394
