19
Iteration:  4014charge 0 multiplicity 1
 C        -3.963687        -0.490541         1.400954
 C        -2.415531        -0.134982         1.438196
 C        -1.430428        -1.296685         1.287188
 C         0.091806        -1.044424         0.940067
 C         0.030980         0.129115         0.035448
 O         0.292580         0.089050        -1.195605
 C        -0.444324         1.390274         0.913245
 C        -1.840922         1.261826         1.331459
 O        -2.061329         0.695636         2.583031
 H        -4.065841        -1.329348         2.019959
 H        -4.605209         0.264088         1.850324
 H        -4.474574        -0.593598         0.432354
 H        -1.571889        -1.857393         2.226674
 H        -1.954900        -1.850337         0.561271
 H         0.712908        -0.729480         1.823612
 H         0.611412        -1.836398         0.399240
 H         0.157542         1.473553         1.820062
 H        -0.135292         2.312704         0.273775
 H        -2.593837         2.093583         0.993847
