19
Iteration:  1176
 C        -4.030239        -0.354150         1.755677
 C        -2.589412        -0.069403         1.567178
 C        -1.817388        -1.209361         1.073513
 C        -0.300248        -1.141751         0.833036
 C         0.127523         0.093634         0.041328
 O         1.097037         0.146452        -0.726190
 C        -0.678064         1.307376         0.346230
 C        -1.902583         1.210851         1.220944
 O        -1.775013         0.616649         2.608288
 H        -4.315559        -0.916569         2.606340
 H        -4.606926         0.609304         1.952081
 H        -4.409827        -0.811226         0.851341
 H        -1.982150        -2.079770         1.731879
 H        -2.209479        -1.548388         0.108528
 H         0.200179        -1.090632         1.789681
 H         0.024173        -2.074477         0.312856
 H         0.072017         2.082218         0.611571
 H        -1.015719         1.717001        -0.718100
 H        -2.473221         2.133069         1.363990
