19
Iteration:  1641
 C        -3.687069        -0.205655         0.867939
 C        -2.325251        -0.000286         1.520949
 C        -1.325138        -1.220548         1.839404
 C        -0.165696        -1.292360         0.789545
 C        -0.050384        -0.050232         0.057469
 O         0.034039        -0.098711        -1.143091
 C        -0.151121         1.223452         1.032737
 C        -1.657166         1.291803         1.276861
 O        -2.381612         0.961637         2.534368
 H        -4.284954        -0.959698         1.520782
 H        -4.306354         0.745318         0.893313
 H        -3.580998        -0.497825        -0.226402
 H        -1.043338        -1.030681         2.881325
 H        -1.876131        -2.205916         1.834470
 H         0.820996        -1.325439         1.401678
 H        -0.041024        -2.259924         0.320651
 H         0.279127         0.857026         1.973766
 H         0.225977         2.202013         0.647978
 H        -2.197253         1.995725         0.635490
