19
Iteration:  3460
 C        -3.881411        -0.521670         1.636388
 C        -2.376076        -0.197689         1.660972
 C        -1.507017        -1.403524         1.552349
 C        -0.535310        -1.191817         0.346780
 C         0.030038         0.208146        -0.017853
 O         1.124216         0.192215        -0.544785
 C        -0.737407         1.461503         0.349548
 C        -1.961841         1.229074         1.154352
 O        -1.977522         0.852296         2.586677
 H        -3.892513        -1.505565         2.242531
 H        -4.485309         0.225412         2.070447
 H        -4.345752        -0.797834         0.633474
 H        -0.862366        -1.487855         2.470629
 H        -2.134727        -2.282372         1.351380
 H         0.326897        -1.822211         0.557592
 H        -1.136331        -1.640851        -0.395659
 H        -0.095629         2.185583         0.812958
 H        -1.053280         1.941299        -0.619454
 H        -2.892493         1.754859         0.801186
