19
Iteration:  4954charge 0 multiplicity 1
 C        -3.883053        -0.643095         1.441911
 C        -2.362190        -0.110082         1.663418
 C        -1.241012        -1.203777         1.721203
 C        -0.545630        -1.307198         0.399622
 C         0.046352         0.078956        -0.022797
 O         0.746804         0.244731        -1.031958
 C        -0.375820         1.206216         0.874392
 C        -1.931647         1.165766         1.119274
 O        -2.258801         1.120111         2.562434
 H        -4.320869        -0.514537         2.493947
 H        -4.447672        -0.112419         0.717895
 H        -3.934265        -1.772971         1.304134
 H        -0.559665        -0.993791         2.555486
 H        -1.709183        -2.059420         2.120139
 H         0.276156        -2.018684         0.399861
 H        -1.168529        -1.678784        -0.435177
 H         0.102575         1.272050         1.823231
 H         0.089598         2.191989         0.420909
 H        -2.499556         1.905790         0.511886
