19
Iteration:  4439
 C        -3.843846        -0.452036         2.093075
 C        -2.411443        -0.198194         1.679178
 C        -1.643963        -1.393583         1.263029
 C        -0.626860        -1.217419         0.126422
 C         0.025787         0.141750         0.024234
 O         1.238088         0.270292        -0.052399
 C        -0.893477         1.454959         0.106023
 C        -2.022664         1.161418         1.028760
 O        -1.729187         0.803515         2.391156
 H        -3.874624        -0.806837         3.118662
 H        -4.262510         0.598043         1.976210
 H        -4.356879        -1.045865         1.331123
 H        -1.140379        -1.779499         2.136624
 H        -2.338036        -2.213685         1.018489
 H         0.208755        -1.972514         0.250626
 H        -0.984092        -1.552687        -0.844706
 H        -0.256396         2.300336         0.492184
 H        -1.141512         1.727608        -0.975731
 H        -2.843481         1.888761         1.020771
