19
Iteration:  4226charge 0 multiplicity 1
 C        -3.962206        -0.387270         2.093711
 C        -2.498565        -0.193621         1.698508
 C        -1.885412        -1.342133         0.950714
 C        -0.393461        -1.157935         0.510182
 C         0.082104         0.243250         0.079741
 O         1.246724         0.358736        -0.193613
 C        -1.068762         1.315312         0.015908
 C        -1.999440         1.080850         1.188975
 O        -1.432127         0.682500         2.383261
 H        -4.134412        -1.517235         2.206776
 H        -4.271835         0.089757         2.965127
 H        -4.546454         0.003315         1.285023
 H        -1.935515        -2.315119         1.370882
 H        -2.487446        -1.438373        -0.031677
 H         0.190610        -1.360950         1.408678
 H         0.050016        -1.909468        -0.183942
 H        -0.598359         2.329842        -0.075046
 H        -1.728229         1.088202        -0.890089
 H        -2.694598         1.957166         1.249369
