19
Iteration:   813charge 0 multiplicity 1
 C        -3.736455        -0.165991         2.312201
 C        -2.490557        -0.123978         1.573520
 C        -2.023119        -1.425605         0.857875
 C        -0.564279        -1.294924         0.506362
 C         0.032492         0.206915         0.156931
 O         1.221520         0.379919         0.245524
 C        -0.929733         1.296157        -0.179394
 C        -1.924314         1.180951         0.911996
 O        -1.484511         0.533825         2.210063
 H        -3.736139        -1.023212         3.015744
 H        -4.067198         0.788683         2.935995
 H        -4.608259        -0.255405         1.660396
 H        -2.256032        -2.193644         1.561289
 H        -2.666293        -1.609262        -0.032641
 H         0.073020        -1.690265         1.268225
 H        -0.439417        -1.913862        -0.454404
 H        -0.409885         2.211311        -0.067600
 H        -1.367700         1.179002        -1.235411
 H        -2.516557         2.086304         1.177720
