19
Iteration:  3728charge 0 multiplicity 1
 C        -3.872313        -0.392038         2.176964
 C        -2.441199        -0.209844         1.616314
 C        -1.763201        -1.448492         1.075375
 C        -0.485906        -1.184847         0.335831
 C         0.065745         0.260157         0.080627
 O         1.290408         0.451150        -0.084589
 C        -0.921551         1.320029         0.029039
 C        -2.091962         1.087946         1.085263
 O        -1.668348         0.697166         2.358461
 H        -3.989092        -1.330631         2.761895
 H        -4.248009         0.440868         2.736514
 H        -4.466706        -0.471270         1.259080
 H        -1.600003        -2.220662         1.810342
 H        -2.606171        -1.879615         0.472124
 H         0.360995        -1.670711         0.881024
 H        -0.469619        -1.730939        -0.638678
 H        -0.423658         2.318040         0.259892
 H        -1.318888         1.372269        -0.958564
 H        -2.905076         1.896038         1.032896
