19
Iteration:  4688charge 0 multiplicity 1
 C        -3.868824        -0.612869         1.529332
 C        -2.415809        -0.086729         1.545390
 C        -1.326463        -1.097588         1.751684
 C        -0.608265        -1.384309         0.439845
 C         0.015587         0.028472        -0.044920
 O         0.944926         0.217756        -0.795840
 C        -0.509549         1.257565         0.586954
 C        -1.894849         1.192219         1.141395
 O        -2.186115         1.003228         2.563236
 H        -4.265758        -0.342236         0.581987
 H        -3.891018        -1.700890         1.883738
 H        -4.425463         0.014584         2.251279
 H        -0.564720        -0.626430         2.266321
 H        -1.802124        -2.052682         2.147671
 H         0.328470        -2.023508         0.628837
 H        -1.142158        -1.799709        -0.395867
 H         0.265822         1.854006         1.205983
 H        -0.632521         1.965275        -0.144208
 H        -2.584935         1.903846         0.673223
