19
Iteration:  4077charge 0 multiplicity 1
 C        -3.932363        -0.316173         1.556196
 C        -2.369485        -0.195067         1.520554
 C        -1.538856        -1.381469         0.962611
 C        -0.090560        -0.989412         1.035274
 C         0.030031         0.208506         0.117776
 O         0.545850         0.024756        -1.050359
 C        -0.655495         1.505846         0.602680
 C        -1.959132         1.210690         1.335385
 O        -1.821326         0.561585         2.632241
 H        -4.294645        -0.581079         2.597848
 H        -4.377281         0.623022         1.283323
 H        -4.285070        -1.220597         0.927878
 H        -1.644850        -2.345524         1.647586
 H        -1.705775        -1.723833        -0.058211
 H         0.084705        -0.903529         2.159778
 H         0.672120        -1.616533         0.577828
 H        -0.092490         1.901346         1.476568
 H        -0.862913         2.317511        -0.105438
 H        -2.763967         1.924081         1.382126
