19
Iteration:  4522charge 0 multiplicity 1
 C        -3.922878        -0.449801         1.819498
 C        -2.414227        -0.135201         1.634178
 C        -1.318095        -1.244427         1.498368
 C        -0.694855        -1.231521         0.105191
 C        -0.018953         0.095604         0.047284
 O         1.171589         0.167370        -0.288632
 C        -0.822599         1.352000         0.349527
 C        -2.055999         1.115613         1.044592
 O        -1.805278         0.901296         2.463025
 H        -4.134736        -1.529773         1.721389
 H        -4.398338        -0.070863         2.751206
 H        -4.522237        -0.110573         0.920903
 H        -0.541224        -0.959706         2.215141
 H        -1.766804        -2.276672         1.715466
 H         0.175979        -1.936506         0.101925
 H        -1.500259        -1.420310        -0.620026
 H        -0.173666         1.998750         1.009075
 H        -0.897563         1.794078        -0.594711
 H        -2.979094         1.672792         0.792820
