19
Iteration:  4234
 C        -3.837033        -0.389181         2.058382
 C        -2.458005        -0.178196         1.677931
 C        -1.996941        -1.369448         0.875271
 C        -0.397706        -1.161304         0.557570
 C         0.041954         0.214514         0.109176
 O         1.242341         0.442638        -0.167281
 C        -1.090158         1.189637         0.041676
 C        -2.001259         1.124116         1.188182
 O        -1.390673         0.703547         2.372234
 H        -4.143402        -1.401973         2.270498
 H        -4.182040         0.140653         2.964438
 H        -4.472027        -0.086404         1.239908
 H        -2.055814        -2.397769         1.459458
 H        -2.542711        -1.531053        -0.045813
 H         0.049985        -1.394841         1.517390
 H        -0.218185        -1.824035        -0.314513
 H        -0.715290         2.161604        -0.032886
 H        -1.569943         1.102175        -0.971473
 H        -2.735520         2.021889         1.327289
