19
Iteration:  2264charge 0 multiplicity 1
 C        -3.875866        -0.293158         1.665772
 C        -2.480776        -0.031280         1.367171
 C        -1.704297        -1.330393         0.957245
 C        -0.203537        -1.015281         1.045735
 C         0.072866         0.080435         0.069596
 O         0.810195        -0.110707        -0.860408
 C        -0.614235         1.426991         0.470783
 C        -1.879676         1.289331         1.341885
 O        -1.955990         0.598551         2.580913
 H        -3.835738        -0.734427         2.671642
 H        -4.487030         0.602586         1.900073
 H        -4.533964        -0.784751         0.956511
 H        -1.965506        -2.038944         1.728849
 H        -1.974062        -1.744153        -0.018746
 H         0.066415        -0.655249         2.011163
 H         0.424035        -1.883389         0.851967
 H         0.220613         1.869222         1.142188
 H        -0.692395         2.089579        -0.389985
 H        -2.529318         2.220211         1.364877
