19
Iteration:   800
 C        -3.708727        -0.186037         2.341843
 C        -2.438723        -0.120240         1.443111
 C        -2.070273        -1.435218         0.857126
 C        -0.563311        -1.359261         0.395828
 C         0.024837         0.105973         0.217806
 O         1.211619         0.382411         0.363636
 C        -0.962667         1.284818        -0.118852
 C        -2.061852         1.208531         0.967460
 O        -1.397156         0.678873         2.146274
 H        -3.514381        -0.954458         3.127740
 H        -3.654297         0.893949         2.865775
 H        -4.637488        -0.463528         1.801789
 H        -2.180713        -2.277100         1.506419
 H        -2.711139        -1.601797         0.001546
 H         0.160391        -1.857302         1.065046
 H        -0.403578        -1.915260        -0.654407
 H        -0.400695         2.311393        -0.217553
 H        -1.403952         1.112943        -1.181332
 H        -2.753195         2.073691         1.071074
