19
Iteration:  3969charge 0 multiplicity 1
 C        -3.871768        -0.442699         1.168050
 C        -2.412265        -0.202258         1.618027
 C        -1.435308        -1.448652         1.480226
 C        -0.072126        -1.204097         0.935406
 C         0.007738         0.129210         0.021907
 O         0.261274         0.299269        -1.115439
 C        -0.469959         1.410655         0.762656
 C        -1.855187         1.136812         1.289739
 O        -1.954246         0.827921         2.662863
 H        -4.041028        -1.472817         1.348923
 H        -4.515729         0.176184         1.680225
 H        -3.815434        -0.078551         0.140065
 H        -1.426054        -2.057879         2.420016
 H        -1.863732        -1.993756         0.713583
 H         0.701744        -1.050624         1.757049
 H         0.321398        -1.955866         0.259674
 H         0.289156         1.917982         1.436940
 H        -0.625867         2.204293         0.003582
 H        -2.517211         2.012525         0.942007
