19
Iteration:   801charge 0 multiplicity 1
 C        -3.713798        -0.184826         2.337604
 C        -2.434895        -0.122473         1.450405
 C        -2.071482        -1.436034         0.857808
 C        -0.565585        -1.362630         0.409964
 C         0.024432         0.114719         0.212572
 O         1.214547         0.384393         0.355931
 C        -0.957328         1.294995        -0.126030
 C        -2.054314         1.209150         0.965708
 O        -1.404433         0.666265         2.149959
 H        -3.533742        -0.947316         3.128652
 H        -3.647468         0.881666         2.886068
 H        -4.625329        -0.465892         1.796961
 H        -2.181590        -2.275273         1.500235
 H        -2.726562        -1.606966        -0.006966
 H         0.171792        -1.824175         1.052544
 H        -0.429750        -1.912895        -0.622630
 H        -0.420603         2.275112        -0.202039
 H        -1.390735         1.105869        -1.183208
 H        -2.738333         2.090255         1.056095
