19
Iteration:  3550charge 0 multiplicity 1
 C        -3.832825        -0.534206         2.155355
 C        -2.436601        -0.161606         1.631922
 C        -1.623195        -1.401307         1.244349
 C        -0.608003        -1.199481         0.077251
 C         0.028555         0.168504         0.126626
 O         1.260103         0.330417         0.146193
 C        -0.938447         1.294259         0.063151
 C        -2.130617         1.178407         0.967238
 O        -1.639296         0.885021         2.239174
 H        -3.747404        -1.429376         2.741217
 H        -4.145031         0.317979         2.791417
 H        -4.496976        -0.597556         1.319329
 H        -1.049882        -1.626691         2.171121
 H        -2.288177        -2.241879         1.090793
 H         0.144428        -1.972123         0.013075
 H        -1.048130        -1.093604        -0.898822
 H        -0.438181         2.249320         0.389903
 H        -1.153871         1.374490        -1.001247
 H        -3.056732         1.730021         0.820976
