19
Iteration:  1502charge 0 multiplicity 1
 C        -3.788559        -0.408772         1.510115
 C        -2.358794        -0.069343         1.674059
 C        -1.503860        -1.296947         1.696722
 C        -0.588573        -1.179125         0.473116
 C         0.056115         0.038030         0.030053
 O         0.946235        -0.059819        -0.817898
 C        -0.429079         1.286419         0.691872
 C        -1.896186         1.253170         1.042611
 O        -2.227282         1.071060         2.492000
 H        -4.217249        -0.885775         2.343639
 H        -4.543364         0.467053         1.279141
 H        -3.877458        -1.083317         0.709120
 H        -0.832811        -1.477667         2.575392
 H        -2.099594        -2.195412         1.534354
 H         0.103071        -2.012269         0.388188
 H        -1.216966        -1.459686        -0.389809
 H         0.057597         1.296841         1.710759
 H        -0.047443         2.182675         0.061994
 H        -2.590025         1.796517         0.354813
