19
Iteration:  2886charge 0 multiplicity 1
 C        -3.587646        -0.413502         2.384845
 C        -2.445188        -0.118255         1.507699
 C        -1.908355        -1.445765         1.085756
 C        -0.722889        -1.231274         0.135871
 C         0.020201         0.225544         0.191673
 O         1.134691         0.294134         0.630584
 C        -0.890236         1.317251        -0.273379
 C        -2.057195         1.166109         0.756178
 O        -1.514443         0.811614         2.121843
 H        -2.942714        -0.902700         3.146068
 H        -3.981526         0.470756         2.743664
 H        -4.225532        -1.219695         1.923006
 H        -1.592505        -2.124554         1.801810
 H        -2.752017        -2.013940         0.646787
 H         0.045810        -1.940864         0.392061
 H        -1.037248        -1.270216        -0.912842
 H        -0.477143         2.362834        -0.021036
 H        -0.980919         1.193565        -1.264351
 H        -2.729423         2.043150         0.843048
