19
Iteration:  1157
 C        -4.062242        -0.229404         1.600218
 C        -2.486694        -0.121278         1.588540
 C        -1.709761        -1.427025         1.063376
 C        -0.166375        -1.197657         0.879756
 C         0.117616         0.047647         0.109619
 O         0.869157         0.150089        -0.868043
 C        -0.653833         1.347953         0.476516
 C        -1.885449         1.237452         1.305938
 O        -1.831001         0.727267         2.607816
 H        -4.363081        -0.650633         2.541658
 H        -4.751757         0.727488         1.580542
 H        -4.425334        -0.842695         0.786489
 H        -1.933621        -2.184576         1.742198
 H        -2.120840        -1.621992         0.062466
 H         0.372650        -0.989061         1.792209
 H         0.292083        -2.081976         0.295068
 H         0.098521         1.973537         1.133582
 H        -0.837111         1.981323        -0.358350
 H        -2.637286         2.034552         1.076395
