19
Iteration:  3745
 C        -4.011761        -0.453441         2.067879
 C        -2.572501        -0.144197         1.643701
 C        -1.804886        -1.427798         1.130286
 C        -0.316745        -1.226812         0.416105
 C         0.051851         0.166677        -0.028896
 O         1.254686         0.458636        -0.178811
 C        -0.962339         1.390936         0.094913
 C        -2.054905         1.184575         1.034488
 O        -1.546082         0.627198         2.415899
 H        -4.076048        -1.460855         2.444121
 H        -4.190653         0.360447         2.875900
 H        -4.765281        -0.357431         1.273877
 H        -1.464438        -1.988862         2.065551
 H        -2.400201        -2.132557         0.524332
 H         0.478422        -1.418637         1.136376
 H        -0.194756        -1.951430        -0.424308
 H        -0.430025         2.256196         0.461243
 H        -1.356032         1.756793        -0.930100
 H        -2.723671         1.971932         1.261187
