19
Iteration:   519
 C        -3.840357        -0.582558         1.274004
 C        -2.468231         0.012423         1.663710
 C        -1.401546        -1.123623         1.738395
 C        -0.704818        -1.331905         0.421273
 C         0.142784        -0.040358         0.087696
 O         0.775971         0.054329        -0.969122
 C        -0.316593         1.263573         0.894408
 C        -1.853774         1.234278         1.149122
 O        -2.136774         1.116446         2.534753
 H        -4.131295        -1.212818         2.067704
 H        -4.668779         0.248956         1.001958
 H        -3.794945        -1.310970         0.534701
 H        -0.664622        -0.913348         2.513516
 H        -1.796480        -2.119392         2.054158
 H        -0.100898        -2.224450         0.473686
 H        -1.419956        -1.521821        -0.491139
 H         0.110643         1.269785         1.977760
 H         0.164726         2.136307         0.283869
 H        -2.487871         2.027502         0.561690
