19
Iteration:  3455charge 0 multiplicity 1
 C        -3.908733        -0.535192         1.611292
 C        -2.355815        -0.182615         1.654468
 C        -1.495706        -1.389718         1.541474
 C        -0.507501        -1.174274         0.346667
 C         0.028604         0.189400         0.015984
 O         1.131992         0.169939        -0.585956
 C        -0.734692         1.489091         0.359175
 C        -1.989067         1.199272         1.156617
 O        -2.002375         0.863225         2.605555
 H        -3.949627        -1.290342         2.375104
 H        -4.468497         0.329823         2.137545
 H        -4.247737        -0.892704         0.653459
 H        -0.925764        -1.544989         2.447251
 H        -2.089529        -2.339915         1.481865
 H         0.389549        -1.814695         0.472757
 H        -1.150441        -1.647311        -0.506357
 H         0.056687         2.132012         0.858980
 H        -1.094972         2.004270        -0.519450
 H        -2.892943         1.672112         0.840355
