19
Iteration:  1105charge 0 multiplicity 1
 C        -4.050793        -0.372935         1.325394
 C        -2.459072        -0.096295         1.389610
 C        -1.572016        -1.347133         1.196139
 C        -0.046397        -1.053192         1.127621
 C         0.098392         0.079504         0.075734
 O         0.247993         0.013557        -1.132380
 C        -0.207872         1.416305         0.846287
 C        -1.756251         1.285726         1.298954
 O        -1.954975         0.687112         2.568098
 H        -4.499113        -1.139919         2.043351
 H        -4.694478         0.533851         1.577114
 H        -4.277225        -0.788522         0.327163
 H        -1.809601        -1.945818         2.186060
 H        -2.023172        -2.036800         0.379995
 H         0.322443        -0.724226         2.141145
 H         0.572918        -1.935990         0.782532
 H         0.255155         1.688689         1.813227
 H        -0.113956         2.263163         0.250856
 H        -2.372104         2.205975         1.167682
