19
Iteration:  4161charge 0 multiplicity 1
 C        -3.976388        -0.383021         1.961095
 C        -2.490673        -0.169093         1.669675
 C        -1.759539        -1.444937         1.009116
 C        -0.224948        -1.194621         0.697890
 C         0.083758         0.161163         0.109091
 O         1.016644         0.329703        -0.650357
 C        -0.773596         1.410934         0.293840
 C        -2.036790         1.157033         1.161701
 O        -1.701248         0.686003         2.465020
 H        -4.209552        -1.462312         2.324511
 H        -4.429280         0.247286         2.694206
 H        -4.501470        -0.300464         1.017673
 H        -1.928155        -2.256024         1.631862
 H        -2.333977        -1.660369         0.040473
 H         0.317599        -1.282480         1.620439
 H         0.091259        -1.842709        -0.124324
 H        -0.204651         2.112615         1.010751
 H        -0.837454         2.044691        -0.579861
 H        -2.721413         1.982302         1.276246
