19
Iteration:  1813charge 0 multiplicity 1
 C        -3.868483        -0.562324         1.563072
 C        -2.454988        -0.061511         1.710595
 C        -1.490450        -1.241922         1.718670
 C        -0.815092        -1.189339         0.287174
 C         0.118948         0.024769         0.025197
 O         1.136973        -0.082464        -0.667529
 C        -0.410320         1.386743         0.595001
 C        -1.836148         1.203008         1.087064
 O        -2.201481         1.123932         2.467490
 H        -4.061130        -1.362405         2.324430
 H        -4.480708         0.230729         1.787649
 H        -4.091639        -0.989934         0.548439
 H        -0.666319        -1.103938         2.449160
 H        -2.120673        -2.184485         1.823856
 H        -0.254560        -2.100671         0.106339
 H        -1.567024        -1.165826        -0.588261
 H         0.343217         1.544144         1.394705
 H        -0.356467         2.212934        -0.142164
 H        -2.495748         1.831319         0.435870
