19
Iteration:  3781
 C        -3.892647        -0.366416         1.864186
 C        -2.409149        -0.173013         1.581262
 C        -1.767016        -1.469161         1.035102
 C        -0.276011        -1.142283         0.684810
 C         0.087826         0.278901         0.161998
 O         1.075166         0.354187        -0.562293
 C        -0.895673         1.364177         0.197337
 C        -2.044886         1.160519         1.205983
 O        -1.732844         0.592589         2.551927
 H        -4.112182        -1.383521         2.176366
 H        -4.156488         0.216525         2.760049
 H        -4.522668        -0.034941         1.091677
 H        -1.723316        -2.234558         1.851513
 H        -2.424123        -1.728600         0.289891
 H         0.372118        -1.280353         1.608432
 H         0.211647        -1.828183        -0.110953
 H        -0.464912         2.417394         0.181985
 H        -1.353596         1.180717        -0.723292
 H        -2.780063         1.978707         1.055269
