19
Iteration:   262
 C        -4.062848        -0.030564         1.663234
 C        -2.570072        -0.099941         1.497270
 C        -1.810630        -1.305046         1.049859
 C        -0.253007        -0.990860         1.083876
 C         0.132569         0.066213         0.102870
 O         0.962987        -0.220586        -0.758269
 C        -0.659173         1.432196         0.351063
 C        -1.807959         1.222722         1.246132
 O        -1.735518         0.548216         2.497453
 H        -4.551197        -0.913480         2.118354
 H        -4.374940         0.826997         2.115749
 H        -4.551234        -0.147397         0.637921
 H        -2.013766        -2.184422         1.748473
 H        -2.187404        -1.706246         0.038280
 H         0.047711        -0.549167         2.033049
 H         0.148687        -2.002948         0.924543
 H        -0.047094         2.338888         0.610115
 H        -1.121668         1.754309        -0.626434
 H        -2.462787         2.064498         1.414962
