19
Iteration:  2401charge 0 multiplicity 1
 C        -3.858758        -0.314964         1.346956
 C        -2.320672        -0.136245         1.511469
 C        -1.479168        -1.454945         1.558982
 C        -0.188099        -1.268964         0.749013
 C        -0.023517         0.057772         0.053545
 O         0.577751         0.084726        -0.991366
 C        -0.492272         1.338768         0.807419
 C        -1.891221         1.260285         1.206903
 O        -2.134465         0.994804         2.514353
 H        -4.315234        -1.282509         1.539304
 H        -4.247291         0.370477         2.252870
 H        -4.176052         0.178788         0.456204
 H        -1.327515        -1.850505         2.608000
 H        -2.093483        -2.173075         0.956035
 H         0.782018        -1.355698         1.419600
 H         0.103786        -2.081765         0.061410
 H         0.191656         1.481807         1.576556
 H        -0.207102         2.122535         0.111935
 H        -2.640579         1.823720         0.605218
