19
Iteration:  4091
 C        -4.000057        -0.353780         1.637453
 C        -2.513681        -0.161106         1.493989
 C        -1.577992        -1.257876         1.001150
 C        -0.005207        -0.959246         1.023009
 C         0.102914         0.178880         0.102374
 O         0.597954         0.100370        -1.014011
 C        -0.675493         1.406811         0.579691
 C        -1.937349         1.172528         1.341922
 O        -1.797919         0.466792         2.595049
 H        -4.262261        -0.602190         2.617478
 H        -4.520307         0.612583         1.344888
 H        -4.298822        -1.171398         0.956306
 H        -1.797779        -2.150222         1.663086
 H        -1.996804        -1.472725         0.033832
 H         0.358049        -0.525172         1.982950
 H         0.451855        -1.931226         0.771425
 H         0.078137         2.003632         1.082967
 H        -0.806069         1.964793        -0.457142
 H        -2.590377         2.150361         1.321677
