19
Iteration:  1122
 C        -3.943517        -0.246405         1.423794
 C        -2.460556        -0.115714         1.433875
 C        -1.632378        -1.379855         1.216236
 C        -0.128332        -1.042662         0.998848
 C         0.073817         0.165879         0.114662
 O         0.440927         0.014461        -1.015650
 C        -0.376481         1.412029         0.745368
 C        -1.774093         1.187785         1.252909
 O        -1.996308         0.634498         2.560191
 H        -4.159914        -0.790091         2.324564
 H        -4.363430         0.798889         1.483430
 H        -4.369145        -0.876325         0.649920
 H        -1.747788        -2.124787         1.935582
 H        -1.839062        -1.937902         0.320187
 H         0.409162        -0.843592         1.908399
 H         0.409986        -1.917534         0.566468
 H         0.389837         1.548222         1.571311
 H        -0.281543         2.318554         0.038958
 H        -2.544035         1.942639         1.025254
