19
Iteration:   595
 C        -4.025580        -0.290989         1.698569
 C        -2.488985        -0.141100         1.601336
 C        -1.559026        -1.291121         1.568122
 C        -0.633665        -1.268776         0.336671
 C         0.129947         0.026003         0.057163
 O         1.216014         0.148918        -0.547518
 C        -0.635685         1.236774         0.462170
 C        -1.973470         1.160891         1.077465
 O        -1.869213         0.962977         2.484173
 H        -4.358924        -0.826051         2.573623
 H        -4.558986         0.772825         1.761172
 H        -4.343670        -0.912641         0.924253
 H        -0.951974        -1.413524         2.489000
 H        -2.255231        -2.231151         1.597051
 H         0.062042        -2.069587         0.303938
 H        -1.261644        -1.358322        -0.567612
 H         0.039627         1.906643         1.075790
 H        -0.640580         1.700399        -0.593819
 H        -2.887499         1.747552         0.614622
