19
Iteration:  4177
 C        -3.973554        -0.393687         2.052961
 C        -2.497090        -0.191275         1.493595
 C        -1.829355        -1.419040         1.040074
 C        -0.339078        -1.241818         0.628162
 C         0.123009         0.190680         0.089725
 O         1.140065         0.444838        -0.601682
 C        -0.801761         1.342404         0.374089
 C        -2.032466         1.189938         1.128005
 O        -1.691824         0.668466         2.461691
 H        -4.122442        -1.390331         2.341676
 H        -4.056717         0.283084         2.978421
 H        -4.815465         0.003804         1.402931
 H        -1.747835        -2.258563         1.864984
 H        -2.317776        -1.895950         0.221479
 H         0.304763        -1.405350         1.553191
 H         0.077847        -2.109140         0.090977
 H        -0.203832         2.225144         0.575690
 H        -1.114948         1.322163        -0.700565
 H        -2.818366         1.976486         1.004907
