19
Iteration:   582
 C        -4.028006        -0.235120         1.645387
 C        -2.500887        -0.102385         1.714062
 C        -1.439018        -1.322081         1.557962
 C        -0.559593        -1.285527         0.298479
 C         0.156016        -0.015010         0.097312
 O         1.107221         0.116135        -0.626241
 C        -0.588006         1.239922         0.498460
 C        -1.972167         1.124147         1.077986
 O        -2.004615         0.976382         2.498191
 H        -4.388299        -0.509665         2.668138
 H        -4.569403         0.724278         1.292535
 H        -4.325160        -0.933063         0.836935
 H        -0.798170        -1.229790         2.469119
 H        -1.909819        -2.393624         1.493313
 H         0.100625        -2.135126         0.285953
 H        -1.167464        -1.362415        -0.576828
 H         0.011988         1.735179         1.233635
 H        -0.667914         1.985249        -0.361091
 H        -2.603280         2.073207         0.812946
