19
Iteration:  3731
 C        -3.896458        -0.389646         2.170598
 C        -2.436248        -0.215724         1.631979
 C        -1.759125        -1.440227         1.088531
 C        -0.477030        -1.189917         0.328865
 C         0.078209         0.251143         0.056518
 O         1.285073         0.454983        -0.095155
 C        -0.921692         1.342897         0.041322
 C        -2.104669         1.089665         1.075543
 O        -1.656614         0.685501         2.361910
 H        -4.030963        -1.356749         2.745922
 H        -4.347872         0.368408         2.806251
 H        -4.511966        -0.448528         1.183457
 H        -1.644636        -2.157441         1.930000
 H        -2.584421        -1.979850         0.405269
 H         0.305055        -1.615176         0.951536
 H        -0.394928        -1.784647        -0.544377
 H        -0.371643         2.249710         0.291053
 H        -1.336878         1.423567        -1.056391
 H        -2.770575         1.966321         1.088893
