19
Iteration:  4390
 C        -3.935883        -0.273640         2.187345
 C        -2.428741        -0.140075         1.674893
 C        -1.782127        -1.420110         1.092802
 C        -0.575799        -1.206589         0.132017
 C         0.099072         0.154328         0.132355
 O         1.291704         0.478873         0.071328
 C        -0.986674         1.185747         0.059039
 C        -2.115839         1.146427         1.038565
 O        -1.476380         0.679399         2.294518
 H        -3.909905        -0.197912         3.301539
 H        -4.555663         0.382793         1.692562
 H        -4.218423        -1.271297         1.868759
 H        -1.424676        -2.005362         2.017637
 H        -2.574468        -2.111506         0.718852
 H         0.016034        -2.096983         0.261853
 H        -0.851252        -1.351755        -0.961817
 H        -0.436003         2.153153         0.015474
 H        -1.315086         0.978335        -0.966862
 H        -2.895370         1.928881         1.190423
