19
Iteration:  2783charge 0 multiplicity 1
 C        -3.922257        -0.364715         2.043031
 C        -2.453628        -0.112162         1.566072
 C        -1.676147        -1.403999         1.317742
 C        -0.623892        -1.264236         0.239791
 C         0.030976         0.132953         0.190548
 O         1.239463         0.282281         0.080519
 C        -0.902125         1.347728         0.043896
 C        -2.103249         1.205192         0.945203
 O        -1.542509         0.750586         2.230745
 H        -3.996616        -1.192364         2.786085
 H        -4.241199         0.624426         2.588701
 H        -4.555975        -0.467754         1.189091
 H        -1.192091        -1.641347         2.275349
 H        -2.328330        -2.198473         0.976507
 H         0.290698        -1.922502         0.271680
 H        -0.963873        -1.652532        -0.756094
 H        -0.285622         2.121319         0.345852
 H        -1.227931         1.471222        -1.028805
 H        -2.686617         2.128782         1.007684
