19
Iteration:  1467
 C        -3.991955        -0.383788         1.553054
 C        -2.470635        -0.030557         1.671740
 C        -1.455750        -1.232467         1.615797
 C        -0.716370        -1.326736         0.297430
 C         0.105679        -0.069059         0.020745
 O         1.176065         0.057601        -0.555587
 C        -0.588511         1.279501         0.437174
 C        -1.932248         1.281451         1.146187
 O        -2.013538         0.973166         2.564727
 H        -4.339670        -0.994132         2.400188
 H        -4.541669         0.505427         1.395744
 H        -4.075796        -0.989915         0.650746
 H        -0.741240        -0.927143         2.383469
 H        -1.839934        -2.163464         1.950432
 H         0.126122        -2.079881         0.286251
 H        -1.436271        -1.462000        -0.513066
 H         0.292987         1.898552         0.932180
 H        -0.621185         1.784125        -0.576279
 H        -2.683735         1.999662         0.825212
