19
Iteration:   942charge 0 multiplicity 1
 C        -3.992570        -0.278399         1.666805
 C        -2.467285        -0.116655         1.418849
 C        -1.669161        -1.445271         1.101627
 C        -0.151406        -1.124866         0.957138
 C         0.121521         0.083356         0.083627
 O         0.678810         0.093537        -1.012674
 C        -0.447318         1.418360         0.697454
 C        -1.905343         1.233194         1.206190
 O        -1.982166         0.714165         2.550266
 H        -4.255954        -0.858436         2.551875
 H        -4.343662         0.759248         1.973267
 H        -4.504559        -0.696057         0.820782
 H        -1.718560        -2.249915         1.869311
 H        -2.069025        -1.900493         0.171627
 H         0.307205        -0.926898         1.929817
 H         0.343362        -2.122559         0.620112
 H         0.236557         1.742664         1.620583
 H        -0.309452         2.264679        -0.006464
 H        -2.564757         2.104411         1.026945
