19
Iteration:   884
 C        -3.940684        -0.247494         1.860338
 C        -2.526395        -0.115812         1.571499
 C        -1.830825        -1.262656         0.878782
 C        -0.324920        -1.205108         0.797956
 C         0.094291         0.046692         0.109401
 O         1.095725         0.177218        -0.565905
 C        -0.848292         1.308653         0.248795
 C        -1.892795         1.202950         1.267235
 O        -1.668051         0.654465         2.579125
 H        -4.149832        -1.135965         2.435586
 H        -4.427188         0.631680         2.194361
 H        -4.475413        -0.363164         0.905298
 H        -2.165026        -2.250042         1.340959
 H        -2.304504        -1.244591        -0.133783
 H         0.197200        -1.139404         1.787983
 H         0.024933        -2.053646         0.245770
 H        -0.246286         2.284672         0.359336
 H        -1.386071         1.407730        -0.648882
 H        -2.517488         2.105053         1.280257
