19
Iteration:  1237charge 0 multiplicity 1
 C        -3.832260        -0.174076         2.233406
 C        -2.511886        -0.096623         1.604390
 C        -2.000920        -1.281838         0.689492
 C        -0.440655        -1.320681         0.698390
 C         0.142283         0.082466         0.260436
 O         1.265432         0.386042        -0.127510
 C        -0.939528         1.224757         0.025662
 C        -2.115926         1.175137         1.022268
 O        -1.496604         0.558847         2.273703
 H        -4.042947        -1.239930         2.651439
 H        -3.911215         0.602905         2.904708
 H        -4.602036         0.001515         1.403973
 H        -2.533419        -2.169136         1.106844
 H        -2.378248        -1.236110        -0.340593
 H         0.059580        -1.577050         1.705886
 H        -0.092089        -2.097535         0.073516
 H        -0.401271         2.130677         0.315489
 H        -1.260993         1.308635        -0.958032
 H        -2.587029         2.128490         1.175694
