19
Iteration:   208
 C        -3.930791        -0.162441         2.033501
 C        -2.514870        -0.011094         1.549524
 C        -1.951452        -1.312276         0.953347
 C        -0.436984        -1.339304         0.613997
 C         0.159794        -0.011357         0.174594
 O         1.307087         0.015116        -0.371954
 C        -0.712795         1.216781         0.200519
 C        -2.005009         1.267077         1.062651
 O        -1.795453         0.920926         2.497642
 H        -3.924530        -0.828689         2.978970
 H        -4.366618         0.771966         2.225807
 H        -4.545516        -0.625472         1.159209
 H        -2.243666        -2.202589         1.531025
 H        -2.492567        -1.352796         0.027045
 H         0.149808        -1.666702         1.513965
 H        -0.325555        -2.140456        -0.157464
 H        -0.056166         2.113605         0.439368
 H        -0.838785         1.356865        -0.882907
 H        -2.679218         2.111445         0.884866
