19
Iteration:  1357
 C        -3.777160        -0.249157         2.383394
 C        -2.514984        -0.122301         1.500278
 C        -1.751588        -1.388492         1.064902
 C        -0.672422        -1.157268         0.009440
 C         0.082394         0.087288         0.078363
 O         1.200149         0.105528         0.531977
 C        -0.851990         1.326965        -0.174106
 C        -2.025217         1.179516         0.905896
 O        -1.610315         0.806397         2.206164
 H        -3.430840        -0.630583         3.411705
 H        -4.161214         0.690087         2.507640
 H        -4.713564        -0.798058         2.062972
 H        -1.322824        -1.780336         1.967001
 H        -2.398999        -2.177286         0.765628
 H         0.164485        -1.965411         0.136198
 H        -1.011640        -1.312639        -0.991309
 H        -0.330556         2.337979         0.086606
 H        -1.209186         1.238861        -1.214641
 H        -2.733430         1.969840         1.037153
