19
Iteration:  4646charge 0 multiplicity 1
 C        -3.849485        -0.561115         1.684411
 C        -2.392657        -0.167898         1.698386
 C        -1.376004        -1.273886         1.648015
 C        -0.488935        -1.178913         0.297445
 C         0.170617         0.107421        -0.004271
 O         1.063705         0.029832        -0.781534
 C        -0.692108         1.340941         0.628664
 C        -2.064707         1.080390         1.043940
 O        -2.148370         1.161359         2.521708
 H        -4.109184        -0.681208         0.648168
 H        -4.243122        -1.401713         2.293828
 H        -4.421059         0.219863         2.109136
 H        -0.849636        -1.361548         2.619522
 H        -2.070501        -2.181439         1.533157
 H         0.339050        -1.885419         0.299683
 H        -1.237365        -1.182792        -0.531208
 H        -0.150725         1.671305         1.561011
 H        -0.662270         2.145127        -0.097310
 H        -2.780050         1.725087         0.536061
