19
Iteration:   403charge 0 multiplicity 1
 C        -3.764253        -0.176923         1.065045
 C        -2.356731        -0.107968         1.504375
 C        -1.469488        -1.310007         1.694681
 C        -0.151768        -1.257148         0.828255
 C         0.076177         0.047075         0.110587
 O         0.142786        -0.000911        -1.118659
 C        -0.169619         1.245375         0.966055
 C        -1.754552         1.160618         1.139748
 O        -2.268450         1.004822         2.588225
 H        -4.400604        -0.645246         1.819820
 H        -3.999962         0.773840         0.701734
 H        -3.705616        -1.033662         0.283523
 H        -1.346929        -1.585671         2.784937
 H        -2.123089        -2.152136         1.276502
 H         0.688764        -1.368639         1.534955
 H        -0.121870        -2.137738         0.183252
 H         0.386342         1.104046         1.854352
 H         0.167306         2.149062         0.487980
 H        -2.348995         1.908492         0.620795
