19
Iteration:  3419charge 0 multiplicity 1
 C        -3.975244        -0.542848         1.644395
 C        -2.482314        -0.155397         1.613321
 C        -1.370070        -1.259753         1.632948
 C        -0.558651        -1.266903         0.308815
 C         0.119532         0.068772        -0.030365
 O         1.080495         0.350261        -0.767381
 C        -0.565235         1.284063         0.645571
 C        -1.988951         1.124329         1.122077
 O        -2.106925         0.909077         2.555824
 H        -4.249285        -0.596372         2.698895
 H        -4.596554         0.165567         1.147540
 H        -4.294940        -1.485083         1.219754
 H        -0.730758        -0.999100         2.480600
 H        -1.888966        -2.186530         1.718179
 H         0.293851        -1.936091         0.326049
 H        -0.996984        -1.427237        -0.652656
 H         0.231670         1.679935         1.397713
 H        -0.600429         2.062292        -0.147508
 H        -2.755699         1.836328         0.730217
