19
Iteration:  2117
 C        -3.810368        -0.163790         2.130312
 C        -2.429488        -0.082436         1.526964
 C        -1.890312        -1.366938         0.888770
 C        -0.423147        -1.338494         0.448469
 C         0.049273         0.029630         0.029727
 O         1.261667         0.304990         0.066928
 C        -0.984588         1.217728        -0.032460
 C        -1.971261         1.207298         1.092001
 O        -1.677199         0.740343         2.433316
 H        -3.714545        -0.650787         3.110369
 H        -4.139101         0.834596         2.304069
 H        -4.655753        -0.734905         1.683989
 H        -2.064121        -2.112746         1.690561
 H        -2.550498        -1.367210         0.013493
 H         0.317596        -1.724952         1.176977
 H        -0.332010        -2.117794        -0.288859
 H        -0.295975         2.174583        -0.006120
 H        -1.494695         1.151887        -0.930984
 H        -2.742111         2.070230         1.030808
