19
Iteration:   826
 C        -3.919668        -0.157476         2.276488
 C        -2.541050        -0.101042         1.527288
 C        -2.023493        -1.339362         0.881402
 C        -0.487738        -1.163011         0.520223
 C         0.059172         0.116791         0.119279
 O         1.257741         0.365619         0.112878
 C        -0.925802         1.245013        -0.167816
 C        -1.941052         1.111979         1.040149
 O        -1.434818         0.511241         2.289998
 H        -3.975100        -1.042172         2.928694
 H        -4.011970         0.716592         2.874813
 H        -4.669618        -0.304755         1.501270
 H        -2.036082        -2.257872         1.488166
 H        -2.645210        -1.561780        -0.038130
 H         0.087147        -1.364087         1.434398
 H        -0.093117        -1.839233        -0.176335
 H        -0.424426         2.108609        -0.142191
 H        -1.459072         1.158868        -1.106162
 H        -2.418807         2.081860         1.216069
