19
Iteration:  1184charge 0 multiplicity 1
 C        -4.003227        -0.333891         1.807348
 C        -2.555433        -0.031062         1.586868
 C        -1.860940        -1.242035         1.033462
 C        -0.353841        -1.120652         0.787179
 C         0.191283         0.064300         0.050845
 O         1.163211         0.120943        -0.662704
 C        -0.720169         1.363773         0.271272
 C        -1.932055         1.233726         1.243990
 O        -1.776360         0.563627         2.576460
 H        -4.010210        -1.090933         2.679391
 H        -4.622246         0.443447         2.086230
 H        -4.503999        -0.772503         0.905449
 H        -2.098867        -2.036054         1.848385
 H        -2.350768        -1.487820         0.063749
 H         0.229125        -0.872094         1.744514
 H        -0.019250        -2.026849         0.372597
 H        -0.144447         2.167057         0.592091
 H        -1.150478         1.667421        -0.727357
 H        -2.550424         2.120002         1.221095
