19
Iteration:  3537
 C        -3.851100        -0.442805         2.138998
 C        -2.434944        -0.209587         1.581201
 C        -1.556909        -1.433723         1.289769
 C        -0.604644        -1.182715         0.111860
 C         0.072698         0.169552         0.098567
 O         1.302975         0.332120         0.051454
 C        -0.918692         1.370863         0.010742
 C        -2.111830         1.050057         0.925498
 O        -1.762437         0.889265         2.413320
 H        -3.987110        -1.508170         2.496607
 H        -4.107505         0.290542         2.857306
 H        -4.669260        -0.423482         1.332105
 H        -0.970196        -1.692303         2.227056
 H        -2.216149        -2.229006         0.953544
 H         0.167414        -1.959933         0.104112
 H        -1.389876        -1.385302        -0.730625
 H        -0.401456         2.236648         0.320022
 H        -1.335425         1.583755        -0.994394
 H        -2.713406         1.976673         0.913495
