19
Iteration:  1010
 C        -3.799780        -0.232972         1.014002
 C        -2.368860        -0.071400         1.384905
 C        -1.499615        -1.441507         1.426041
 C        -0.040883        -1.021180         1.131882
 C         0.006814         0.074629         0.045583
 O        -0.047739        -0.015181        -1.172090
 C        -0.262189         1.404045         0.887559
 C        -1.680364         1.290941         1.418090
 O        -2.034854         0.611649         2.611007
 H        -4.253214        -1.089396         1.586496
 H        -4.362818         0.585121         1.291038
 H        -3.929485        -0.566515        -0.036412
 H        -1.724914        -1.729981         2.399277
 H        -1.844252        -2.213401         0.800531
 H         0.507756        -0.566879         1.974990
 H         0.546592        -1.851191         0.846159
 H         0.418564         1.557776         1.727156
 H         0.003502         2.347705         0.205567
 H        -2.198949         2.221876         1.247705
