19
Iteration:  2400charge 0 multiplicity 1
 C        -3.852976        -0.303436         1.352158
 C        -2.322319        -0.132784         1.515219
 C        -1.477922        -1.462174         1.558917
 C        -0.186887        -1.273300         0.758018
 C        -0.023984         0.062007         0.039036
 O         0.580775         0.087139        -0.995855
 C        -0.496815         1.331477         0.811557
 C        -1.902860         1.253956         1.203050
 O        -2.136639         0.993228         2.515512
 H        -4.290561        -1.290333         1.508617
 H        -4.231561         0.377059         2.227647
 H        -4.140683         0.178764         0.436731
 H        -1.334719        -1.843005         2.592258
 H        -2.105465        -2.135770         0.969693
 H         0.764889        -1.318380         1.428540
 H         0.119060        -2.085277         0.086243
 H         0.227934         1.463626         1.613531
 H        -0.193981         2.139828         0.085280
 H        -2.638385         1.805019         0.647744
