19
Iteration:  2107charge 0 multiplicity 1
 C        -3.849595        -0.129693         2.222671
 C        -2.515177        -0.060890         1.494141
 C        -1.913764        -1.326242         0.873502
 C        -0.389125        -1.394553         0.448081
 C         0.115104         0.018299         0.008568
 O         1.255129         0.350792         0.154972
 C        -0.986935         1.227684        -0.116119
 C        -1.983987         1.274090         1.065352
 O        -1.621393         0.617041         2.392144
 H        -3.503830        -0.404820         3.258524
 H        -4.241472         0.929424         2.416595
 H        -4.677902        -0.808481         1.889383
 H        -2.072303        -2.248601         1.478628
 H        -2.519467        -1.747806         0.048554
 H         0.216731        -1.625984         1.355194
 H        -0.215003        -2.089095        -0.348444
 H        -0.333054         2.182893        -0.283765
 H        -1.547970         1.177573        -0.993110
 H        -2.801297         2.128493         1.262408
