19
Iteration:  4618
 C        -3.861679        -0.541801         1.786180
 C        -2.378297        -0.167436         1.631966
 C        -1.411678        -1.338456         1.654932
 C        -0.611756        -1.329338         0.294033
 C         0.008263         0.024459        -0.012679
 O         1.075530         0.308014        -0.611620
 C        -0.586035         1.312466         0.474085
 C        -1.938794         1.186959         1.035041
 O        -2.133460         1.043458         2.467408
 H        -4.136017        -1.238646         0.907074
 H        -4.152451        -0.908436         2.777916
 H        -4.519293         0.364590         1.581996
 H        -0.695384        -1.189875         2.505280
 H        -2.020226        -2.191480         1.694230
 H         0.214948        -2.009983         0.433570
 H        -1.294408        -1.468168        -0.564081
 H         0.170988         1.557228         1.222176
 H        -0.489305         2.124517        -0.355413
 H        -2.654992         1.867567         0.519359
