19
Iteration:  1458
 C        -3.941792        -0.353665         1.559865
 C        -2.507835         0.005360         1.633871
 C        -1.422006        -1.164015         1.631532
 C        -0.704051        -1.295676         0.274532
 C         0.075249        -0.040766         0.021634
 O         1.201902         0.081985        -0.465289
 C        -0.600802         1.179556         0.365695
 C        -1.970093         1.239879         1.090492
 O        -1.968869         0.894398         2.582799
 H        -4.237446        -0.887899         2.439669
 H        -4.683453         0.580678         1.676304
 H        -4.162091        -0.956183         0.705492
 H        -0.729459        -0.824915         2.463811
 H        -1.936499        -2.095981         1.862950
 H        -0.175584        -2.254657         0.192659
 H        -1.408941        -1.387294        -0.560298
 H         0.150079         1.839351         0.843687
 H        -0.919127         1.655147        -0.632241
 H        -2.620370         2.142695         0.982915
