19
Iteration:  1602charge 0 multiplicity 1
 C        -3.680586        -0.366472         0.804359
 C        -2.371609        -0.002327         1.610667
 C        -1.452248        -1.210358         1.880001
 C        -0.368190        -1.334071         0.792288
 C        -0.042406        -0.074219         0.159125
 O         0.139497         0.054411        -1.033090
 C        -0.175837         1.283784         0.857591
 C        -1.676569         1.242335         1.229759
 O        -2.145992         0.998539         2.591718
 H        -4.380308        -1.005730         1.231998
 H        -4.319329         0.460025         0.298984
 H        -3.249549        -1.031035         0.116743
 H        -0.894308        -1.109528         2.831492
 H        -2.065678        -2.139729         1.822755
 H         0.634287        -1.599177         1.132671
 H        -0.543704        -2.042928        -0.053323
 H         0.505304         1.425487         1.759429
 H         0.026609         1.984830        -0.037371
 H        -2.297958         2.034673         0.732334
