19
Iteration:  4247
 C        -3.783905        -0.337016         2.127233
 C        -2.366405        -0.136217         1.566916
 C        -1.920525        -1.362094         0.799542
 C        -0.491011        -1.273581         0.591298
 C         0.034592         0.135751         0.176299
 O         1.134962         0.560885        -0.103829
 C        -1.067579         1.176376        -0.026820
 C        -2.040011         1.186721         1.151248
 O        -1.407267         0.622822         2.403927
 H        -3.867426        -1.390390         2.531192
 H        -3.989510         0.375770         2.841403
 H        -4.431332        -0.190745         1.306239
 H        -2.222437        -2.203547         1.443614
 H        -2.602019        -1.391758        -0.104799
 H         0.161501        -1.634981         1.354568
 H        -0.053530        -1.958127        -0.172683
 H        -0.494794         2.099002        -0.161698
 H        -1.635114         0.871862        -0.972129
 H        -2.725314         2.096565         1.297723
