19
Iteration:  1179
 C        -4.005792        -0.356402         1.770041
 C        -2.587903        -0.058195         1.578823
 C        -1.838416        -1.217808         1.065105
 C        -0.324799        -1.131730         0.816432
 C         0.162494         0.078615         0.045339
 O         1.122129         0.137511        -0.700522
 C        -0.701709         1.326088         0.308866
 C        -1.913191         1.216810         1.223943
 O        -1.774060         0.590871         2.598623
 H        -4.204922        -0.950179         2.653018
 H        -4.673392         0.571894         2.033539
 H        -4.452650        -0.769710         0.874346
 H        -2.031960        -1.981158         1.764104
 H        -2.235866        -1.501689         0.082962
 H         0.211241        -0.956468         1.743943
 H        -0.009842        -2.105410         0.296315
 H         0.051417         2.185858         0.601302
 H        -1.039123         1.689263        -0.653981
 H        -2.519558         2.148760         1.310396
