19
Iteration:   295
 C        -3.920834        -0.085341         1.445426
 C        -2.451940        -0.047504         1.491481
 C        -1.695753        -1.231759         1.129890
 C        -0.113172        -1.049298         1.205685
 C         0.083100        -0.060541         0.092455
 O         0.634083        -0.155970        -0.961890
 C        -0.546263         1.328917         0.497227
 C        -1.832493         1.250856         1.266809
 O        -1.948836         0.640852         2.605722
 H        -4.335370        -0.958638         1.986819
 H        -4.319209         0.715003         1.948357
 H        -4.315204        -0.003632         0.380384
 H        -1.917467        -2.167332         1.735906
 H        -1.826814        -1.466079         0.007556
 H         0.256285        -0.635284         2.159668
 H         0.310881        -2.036971         0.989898
 H         0.233241         1.912599         1.051883
 H        -0.701836         1.768888        -0.510721
 H        -2.490051         2.113160         1.174083
