19
Iteration:  4652charge 0 multiplicity 1
 C        -3.896150        -0.587742         1.693118
 C        -2.421360        -0.164152         1.641141
 C        -1.353465        -1.238755         1.657716
 C        -0.499176        -1.119546         0.378769
 C         0.149612         0.101033         0.007812
 O         1.078925         0.010079        -0.819863
 C        -0.660038         1.357303         0.603323
 C        -2.056284         1.108262         1.086682
 O        -2.146198         1.131643         2.519519
 H        -4.216138        -0.679733         0.616622
 H        -4.235977        -1.609078         2.038043
 H        -4.464653         0.284577         2.161279
 H        -0.786103        -1.407754         2.578666
 H        -1.852640        -2.210464         1.702696
 H         0.172525        -2.020062         0.191441
 H        -1.118419        -1.226919        -0.536339
 H         0.037127         1.491317         1.475037
 H        -0.623349         2.201132        -0.105970
 H        -2.853958         1.725091         0.636135
