19
Iteration:  3682charge 0 multiplicity 1
 C        -3.781302        -0.492765         2.348643
 C        -2.445796        -0.148507         1.590242
 C        -1.831855        -1.364832         0.993597
 C        -0.472807        -1.227545         0.048233
 C         0.081767         0.151167         0.069733
 O         1.214952         0.472610         0.311580
 C        -1.013823         1.274914        -0.034430
 C        -2.083919         1.158590         1.000146
 O        -1.578430         0.754406         2.259708
 H        -3.502568        -0.636585         3.370657
 H        -4.439713         0.423544         2.315663
 H        -4.323240        -1.304591         2.018335
 H        -1.638238        -1.981242         1.888063
 H        -2.469338        -1.959471         0.421611
 H         0.294740        -1.942955         0.440263
 H        -0.626972        -1.612531        -1.003537
 H        -0.425735         2.230305        -0.034034
 H        -1.546822         1.200779        -0.922503
 H        -2.772853         2.032693         0.967824
