19
Iteration:  3474
 C        -3.880315        -0.563124         1.705486
 C        -2.447813        -0.123993         1.638380
 C        -1.505430        -1.335253         1.532823
 C        -0.575963        -1.254989         0.335459
 C         0.013155         0.127426         0.027529
 O         1.161778         0.308983        -0.459167
 C        -0.771726         1.378343         0.294186
 C        -2.024106         1.176523         1.141103
 O        -1.863031         0.843780         2.509483
 H        -4.116589        -1.582778         1.935932
 H        -4.457109         0.076906         2.387124
 H        -4.070333        -0.348919         0.671971
 H        -1.058101        -1.514439         2.497615
 H        -2.060457        -2.251367         1.470223
 H         0.293057        -1.894553         0.369033
 H        -1.019114        -1.503632        -0.587471
 H        -0.050858         2.202517         0.700937
 H        -1.124941         1.725396        -0.697083
 H        -2.661265         2.077026         1.133301
