19
Iteration:  1851charge 0 multiplicity 1
 C        -3.891343        -0.388406         1.774580
 C        -2.459781        -0.058405         1.577614
 C        -1.394987        -1.123509         1.476272
 C        -0.698107        -1.294692         0.091454
 C         0.056622        -0.083184         0.000901
 O         1.232795        -0.001910        -0.332203
 C        -0.662007         1.199426         0.501731
 C        -2.045290         1.215382         1.036084
 O        -2.045332         1.047756         2.465468
 H        -4.038075        -1.016247         2.647626
 H        -4.311156         0.707942         2.130627
 H        -4.477016        -0.703782         0.903579
 H        -0.568677        -0.831189         2.220336
 H        -1.524381        -2.174560         1.981673
 H        -0.030669        -2.196475        -0.031590
 H        -1.414264        -1.283297        -0.713170
 H        -0.165532         1.452469         1.452210
 H        -0.443670         2.032924        -0.158928
 H        -2.745323         1.960562         0.710329
