19
Iteration:   404
 C        -3.753599        -0.182572         1.061222
 C        -2.346987        -0.109544         1.492820
 C        -1.469720        -1.309640         1.696883
 C        -0.167031        -1.262138         0.828574
 C         0.069879         0.045795         0.105611
 O         0.145527        -0.000191        -1.115957
 C        -0.175085         1.255035         0.964103
 C        -1.749053         1.167239         1.141599
 O        -2.270467         1.005153         2.590971
 H        -4.394407        -0.649309         1.837368
 H        -4.000919         0.711876         0.721359
 H        -3.690987        -1.018639         0.284797
 H        -1.330943        -1.584610         2.810660
 H        -2.162246        -2.159484         1.284856
 H         0.679618        -1.384159         1.555413
 H        -0.156735        -2.098377         0.196301
 H         0.418551         1.095370         1.840514
 H         0.163873         2.145277         0.508241
 H        -2.325719         1.900152         0.635561
