19
Iteration:  4055charge 0 multiplicity 1
 C        -3.824126        -0.429949         1.486693
 C        -2.365629        -0.210950         1.474087
 C        -1.602765        -1.419000         1.112757
 C        -0.085778        -1.018303         0.966832
 C        -0.036609         0.229487         0.159293
 O         0.365027         0.094833        -1.023238
 C        -0.451515         1.543752         0.682872
 C        -1.834134         1.169731         1.298510
 O        -1.909291         0.651451         2.607562
 H        -4.190497        -0.795792         2.498755
 H        -4.345266         0.481282         1.283688
 H        -4.161396        -1.213985         0.713621
 H        -1.813112        -2.457913         1.613137
 H        -1.818581        -1.617393         0.065939
 H         0.140261        -0.686764         2.031466
 H         0.625311        -1.795156         0.688700
 H         0.279727         2.009826         1.376459
 H        -0.796827         2.244058        -0.041500
 H        -2.680415         1.790754         1.017702
