19
Iteration:  2600charge 0 multiplicity 1
 C        -3.882599        -0.550181         1.497489
 C        -2.360765        -0.154094         1.654840
 C        -1.296516        -1.186780         1.713098
 C        -0.701590        -1.143126         0.292523
 C         0.039002         0.049681         0.057844
 O         1.015424         0.017285        -0.706651
 C        -0.504815         1.376812         0.690090
 C        -1.987234         1.232707         1.046802
 O        -2.111828         0.963082         2.468912
 H        -4.090866        -1.585643         1.945692
 H        -4.554093         0.137394         2.109073
 H        -4.365401        -0.514262         0.480698
 H        -0.615641        -0.977006         2.574720
 H        -1.714788        -2.261877         1.897564
 H        -0.081319        -2.121057         0.094621
 H        -1.574835        -1.179197        -0.373181
 H         0.059819         1.566546         1.772227
 H        -0.196474         2.195717         0.058794
 H        -2.850183         1.839510         0.584432
