19
Iteration:  1832charge 0 multiplicity 1
 C        -3.987855        -0.472578         1.709842
 C        -2.420408        -0.019436         1.692253
 C        -1.377472        -1.155933         1.574119
 C        -0.778546        -1.316325         0.151875
 C         0.098230        -0.041694        -0.104420
 O         1.266768        -0.015761        -0.492103
 C        -0.472445         1.231447         0.567580
 C        -2.002673         1.223510         1.070108
 O        -2.172447         1.146505         2.512430
 H        -4.086729        -1.365100         2.359737
 H        -4.675892         0.274780         2.006814
 H        -4.151216        -0.822971         0.643718
 H        -0.654352        -0.932807         2.307353
 H        -1.796757        -2.063906         1.785528
 H        -0.198293        -2.210177        -0.022003
 H        -1.566729        -1.431506        -0.588255
 H         0.082177         1.453447         1.551788
 H        -0.324194         2.020286        -0.144327
 H        -2.700099         1.888651         0.619428
