19
Iteration:  2105
 C        -3.862304        -0.115705         2.257289
 C        -2.534409        -0.060968         1.488733
 C        -1.919672        -1.328613         0.865391
 C        -0.390142        -1.397340         0.448425
 C         0.114861         0.025250         0.022963
 O         1.259395         0.359406         0.167336
 C        -0.980187         1.224293        -0.135890
 C        -1.993051         1.278132         1.064564
 O        -1.602911         0.598464         2.375427
 H        -3.500873        -0.376458         3.236833
 H        -4.240922         0.824636         2.374959
 H        -4.629103        -0.799264         1.870656
 H        -2.069201        -2.244407         1.487187
 H        -2.498252        -1.763546         0.046582
 H         0.186924        -1.586910         1.367068
 H        -0.198421        -2.076791        -0.369450
 H        -0.337911         2.200626        -0.301777
 H        -1.584454         1.162371        -0.987557
 H        -2.690790         2.116603         1.246506
