19
Iteration:  4440
 C        -3.847032        -0.456149         2.088648
 C        -2.413732        -0.187760         1.676966
 C        -1.643524        -1.395694         1.263856
 C        -0.624320        -1.224121         0.119488
 C         0.031669         0.142023         0.033197
 O         1.242235         0.271032        -0.058432
 C        -0.896213         1.454173         0.107135
 C        -2.027915         1.150671         1.033812
 O        -1.725743         0.814615         2.392582
 H        -3.892539        -0.834678         3.141862
 H        -4.279221         0.589008         1.999145
 H        -4.334994        -1.042563         1.306692
 H        -1.129294        -1.780352         2.155803
 H        -2.337595        -2.177607         1.016680
 H         0.164984        -1.984197         0.228685
 H        -0.997181        -1.554593        -0.840894
 H        -0.292725         2.270260         0.499313
 H        -1.113725         1.728541        -0.969952
 H        -2.842546         1.905755         1.031671
