19
Iteration:  2328charge 0 multiplicity 1
 C        -3.787865        -0.274442         1.442376
 C        -2.372634        -0.086769         1.417381
 C        -1.635087        -1.337956         1.160151
 C        -0.149624        -1.103230         1.056204
 C         0.001343         0.109224         0.167389
 O         0.477060        -0.076753        -0.952977
 C        -0.484169         1.431102         0.618303
 C        -1.880194         1.294433         1.244728
 O        -1.959952         0.652345         2.573861
 H        -3.966649        -0.802786         2.391034
 H        -4.327688         0.743612         1.385045
 H        -4.090449        -0.972464         0.655075
 H        -1.928199        -1.994884         2.019665
 H        -1.949525        -1.670893         0.121751
 H         0.301899        -0.979090         2.032758
 H         0.353813        -1.939822         0.557430
 H         0.260363         1.944095         1.446336
 H        -0.464109         2.157285        -0.183021
 H        -2.641355         2.186267         1.129461
