19
Iteration:  1610charge 0 multiplicity 1
 C        -3.675413        -0.338001         0.761242
 C        -2.359890        -0.004597         1.528561
 C        -1.438984        -1.195813         1.901738
 C        -0.306056        -1.376166         0.821267
 C         0.031639        -0.069899         0.133287
 O         0.083827         0.065931        -1.070972
 C        -0.241074         1.229127         0.831355
 C        -1.660431         1.274026         1.280891
 O        -2.169604         0.972950         2.624083
 H        -4.250761        -0.965293         1.421027
 H        -4.252309         0.546824         0.329063
 H        -3.364386        -0.952836        -0.061896
 H        -1.065260        -1.066354         2.907498
 H        -2.023334        -2.037442         1.987646
 H         0.621138        -1.616835         1.450665
 H        -0.666221        -2.151062         0.153068
 H         0.526174         1.442681         1.675702
 H        -0.004553         2.144059         0.156570
 H        -2.243640         2.094742         0.803003
