19
Iteration:  4833charge 0 multiplicity 1
 C        -3.872616        -0.497717         1.352832
 C        -2.408826        -0.122398         1.614551
 C        -1.320839        -1.237844         1.761820
 C        -0.367932        -1.317299         0.629159
 C         0.138620         0.095591         0.077366
 O         0.523321         0.225547        -1.085433
 C        -0.397251         1.308655         0.782847
 C        -1.862965         1.066241         1.102886
 O        -2.189914         1.008830         2.554575
 H        -3.984226        -1.622000         1.543350
 H        -4.393338         0.193688         1.941493
 H        -4.174324        -0.212964         0.322454
 H        -0.685155        -0.962773         2.676547
 H        -1.730166        -2.241321         1.923303
 H         0.344378        -2.131574         0.717587
 H        -0.926998        -1.641831        -0.277797
 H         0.011659         1.520859         1.752980
 H        -0.016534         2.300172         0.205539
 H        -2.560157         1.795666         0.597602
