19
Iteration:  2716charge 0 multiplicity 1
 C        -4.034274        -0.462102         1.939134
 C        -2.567294        -0.078553         1.537880
 C        -1.684132        -1.281774         1.326760
 C        -0.457451        -1.286594         0.365576
 C         0.169480         0.064407         0.101553
 O         1.264904         0.237668        -0.470390
 C        -0.726711         1.286103         0.338057
 C        -1.997571         1.174115         1.065904
 O        -1.863794         0.908625         2.474586
 H        -4.050272        -0.665750         2.998580
 H        -4.569320         0.554912         1.708638
 H        -4.384094        -1.255645         1.284410
 H        -1.326381        -1.584323         2.335897
 H        -2.254063        -2.135980         1.033489
 H         0.179840        -2.019104         0.830551
 H        -0.617028        -1.683077        -0.711144
 H        -0.262220         1.942668         0.939203
 H        -0.772378         1.810592        -0.660603
 H        -2.634471         1.997473         0.855856
