19
Iteration:   863charge 0 multiplicity 1
 C        -3.892660        -0.173645         1.951065
 C        -2.454738        -0.095432         1.648093
 C        -1.912285        -1.275293         0.778489
 C        -0.338677        -1.253728         0.714162
 C         0.116104         0.091196         0.203711
 O         1.181699         0.289304        -0.346724
 C        -0.986605         1.159321         0.026679
 C        -1.924618         1.264457         1.208805
 O        -1.628595         0.581245         2.566874
 H        -4.058591        -1.047038         2.566970
 H        -4.234625         0.759031         2.422508
 H        -4.611048        -0.195067         1.134935
 H        -2.339186        -2.241954         1.191236
 H        -2.386254        -1.145879        -0.211135
 H         0.221460        -1.467254         1.666577
 H        -0.021410        -2.033752        -0.015906
 H        -0.408388         2.159360        -0.289430
 H        -1.477973         0.896922        -0.887106
 H        -2.648725         2.064343         1.322544
