19
Iteration:  1078charge 0 multiplicity 1
 C        -3.752427        -0.331785         1.138623
 C        -2.346508        -0.041201         1.421686
 C        -1.536702        -1.282511         1.239396
 C        -0.008497        -1.075610         1.119876
 C        -0.018594         0.064150         0.183076
 O        -0.024764        -0.037704        -1.059825
 C        -0.218636         1.337403         0.853720
 C        -1.743309         1.246853         1.279530
 O        -2.036778         0.744580         2.621417
 H        -3.950132        -1.358997         1.423350
 H        -4.528209         0.263008         1.633533
 H        -3.940073        -0.497133         0.066996
 H        -1.863519        -2.033152         1.860809
 H        -1.880430        -1.674100         0.291771
 H         0.487485        -0.877427         2.061948
 H         0.526700        -1.894044         0.635115
 H         0.266917         1.659858         1.778144
 H        -0.152171         2.253126         0.108748
 H        -2.378672         2.117370         1.094629
