19
Iteration:  1692charge 0 multiplicity 1
 C        -3.757321        -0.383546         1.114385
 C        -2.308063        -0.016882         1.473066
 C        -1.519088        -1.344698         1.772434
 C        -0.285599        -1.341401         0.879679
 C        -0.007006        -0.051589         0.209932
 O         0.151019         0.185389        -1.006314
 C        -0.091824         1.242124         0.950817
 C        -1.712070         1.268823         1.012956
 O        -2.177508         1.036416         2.391772
 H        -4.182450        -1.152040         1.816901
 H        -4.386329         0.381998         1.131175
 H        -3.777441        -0.941604         0.121342
 H        -1.198107        -1.187273         2.830338
 H        -2.316817        -2.204416         1.637605
 H         0.550246        -1.781939         1.290035
 H        -0.419264        -2.139923         0.124014
 H         0.375464         1.254390         1.897338
 H         0.227711         1.950475         0.268783
 H        -2.170676         2.093113         0.519893
