19
Iteration:  4607charge 0 multiplicity 1
 C        -3.901748        -0.559693         1.738341
 C        -2.471841        -0.121520         1.561210
 C        -1.404340        -1.243131         1.662733
 C        -0.582335        -1.320026         0.300335
 C         0.043659         0.078502        -0.057584
 O         1.094190         0.258937        -0.573082
 C        -0.612496         1.280882         0.477979
 C        -1.969875         1.200565         1.085271
 O        -2.038745         0.965807         2.461302
 H        -4.324133        -1.550266         1.330930
 H        -3.933256        -0.716649         2.814126
 H        -4.510742         0.359388         1.478012
 H        -0.838280        -1.033739         2.609440
 H        -1.767326        -2.204416         1.872865
 H         0.122362        -2.089154         0.039391
 H        -1.380381        -1.658082        -0.385236
 H        -0.013995         1.765467         1.235041
 H        -0.618068         2.050571        -0.407076
 H        -2.693952         1.985216         0.755080
