19
Iteration:  2946
 C        -3.808887        -0.204597         2.092833
 C        -2.395947        -0.167013         1.611226
 C        -1.786506        -1.536930         1.052228
 C        -0.559399        -1.338027         0.164593
 C         0.049049         0.151755         0.017811
 O         1.213624         0.424161         0.291361
 C        -0.930155         1.239745        -0.090179
 C        -1.988319         1.121012         1.076967
 O        -1.626021         0.827327         2.385568
 H        -3.876537        -0.701313         3.072215
 H        -4.185925         0.841146         2.398370
 H        -4.645566        -0.596470         1.585889
 H        -1.554668        -2.067825         2.066199
 H        -2.617708        -1.954159         0.500448
 H         0.272432        -2.070003         0.370182
 H        -0.708101        -1.607352        -0.878497
 H        -0.489026         2.173030        -0.212942
 H        -1.670014         1.146983        -0.947540
 H        -2.719271         1.911233         0.911738
