19
Iteration:  3978charge 0 multiplicity 1
 C        -3.825712        -0.424458         1.202766
 C        -2.311373        -0.193599         1.679743
 C        -1.515574        -1.479261         1.451046
 C        -0.038964        -1.152370         0.902874
 C        -0.000691         0.187276         0.058558
 O         0.272134         0.243294        -1.182805
 C        -0.451361         1.465723         0.799594
 C        -1.790605         1.143098         1.255419
 O        -2.061494         0.815439         2.659793
 H        -4.153764        -1.510704         1.283816
 H        -4.412310         0.169787         1.833879
 H        -4.000295        -0.179467         0.136413
 H        -1.377207        -2.222137         2.345958
 H        -1.966906        -2.020529         0.620578
 H         0.671437        -1.020057         1.762890
 H         0.145829        -2.132823         0.475375
 H         0.227703         1.865693         1.624116
 H        -0.611153         2.171152         0.066882
 H        -2.566604         1.671994         0.788532
