19
Iteration:  2290
 C        -4.122047        -0.252871         1.666479
 C        -2.564452        -0.114763         1.525364
 C        -1.624596        -1.288761         0.865816
 C        -0.105518        -0.949277         1.218533
 C         0.236970         0.109752         0.206098
 O         0.577492        -0.106014        -0.966365
 C        -0.487025         1.468042         0.529790
 C        -1.872736         1.171104         1.200522
 O        -1.811564         0.573625         2.519775
 H        -4.435337        -0.527194         2.699557
 H        -4.611807         0.701857         1.497931
 H        -4.532660        -0.904710         0.840835
 H        -1.856491        -2.321480         1.230687
 H        -1.753015        -1.420900        -0.213230
 H         0.129853        -0.578461         2.253395
 H         0.402335        -1.915771         1.027962
 H        -0.019582         1.970697         1.236323
 H        -0.506488         2.035517        -0.442953
 H        -2.463637         2.024738         1.232106
