19
Iteration:  3362
 C        -3.756452        -0.691791         1.381713
 C        -2.417839        -0.175343         1.720452
 C        -1.301536        -1.235103         1.688627
 C        -0.656961        -1.182097         0.329333
 C         0.100914         0.084679         0.006421
 O         0.839678         0.190177        -0.950294
 C        -0.405722         1.310174         0.871674
 C        -1.888710         1.217969         1.167869
 O        -2.312081         1.072750         2.556044
 H        -4.359146        -0.683883         2.345233
 H        -4.371098        -0.158828         0.750261
 H        -3.624387        -1.782903         1.180656
 H        -0.435555        -1.023873         2.450249
 H        -1.700484        -2.183563         2.074888
 H        -0.006152        -2.058430         0.094565
 H        -1.336339        -1.044739        -0.487123
 H         0.272531         1.116720         1.823936
 H        -0.192096         2.362197         0.455829
 H        -2.650300         1.605748         0.397595
