19
Iteration:   329charge 0 multiplicity 1
 C        -3.948180        -0.306522         1.275470
 C        -2.452863        -0.043090         1.467763
 C        -1.689115        -1.387053         1.285799
 C        -0.137148        -1.138581         1.040527
 C         0.044915        -0.000552         0.172471
 O         0.358860        -0.168836        -1.014638
 C        -0.238269         1.452238         0.746956
 C        -1.768788         1.304413         1.226910
 O        -1.952932         0.933905         2.583989
 H        -4.177475        -1.212284         1.935734
 H        -4.476552         0.534962         1.504876
 H        -4.126991        -0.677225         0.229815
 H        -1.826682        -2.198987         2.085428
 H        -2.091162        -1.880002         0.304277
 H         0.515843        -1.097354         1.973716
 H         0.217424        -1.925149         0.453576
 H         0.303144         1.692442         1.729519
 H         0.002087         2.184740        -0.014577
 H        -2.442166         2.047932         0.867967
