19
Iteration:  1220charge 0 multiplicity 1
 C        -3.934585        -0.236031         2.142592
 C        -2.521135        -0.144245         1.474863
 C        -1.903107        -1.292604         0.771468
 C        -0.406549        -1.169892         0.726930
 C         0.056461         0.116886         0.134764
 O         1.197008         0.199910        -0.237061
 C        -0.853259         1.300551         0.125729
 C        -1.959206         1.192919         1.117564
 O        -1.595244         0.618608         2.397958
 H        -3.960538        -1.149953         2.663874
 H        -4.011607         0.564342         2.982833
 H        -4.715977        -0.219012         1.414849
 H        -2.156042        -2.325535         1.090628
 H        -2.307367        -1.257603        -0.267394
 H         0.032699        -1.283085         1.712726
 H         0.136682        -1.968963         0.125033
 H        -0.255974         2.218241         0.343430
 H        -1.267058         1.381831        -0.974175
 H        -2.707892         2.010126         1.191970
