19
Iteration:    75
 C        -3.618875        -0.252396         2.267469
 C        -2.417858        -0.046853         1.434767
 C        -1.758291        -1.341079         1.117280
 C        -0.810385        -1.406598        -0.061345
 C        -0.117062        -0.065517         0.218809
 O         1.006580         0.048223         0.767843
 C        -0.817886         1.335357        -0.196781
 C        -1.938342         1.295864         0.858973
 O        -1.417056         0.999512         2.132462
 H        -3.860944        -1.273367         2.482179
 H        -3.504024         0.534071         3.167707
 H        -4.618504         0.010574         1.688453
 H        -1.188411        -1.713775         1.921746
 H        -2.559624        -2.028062         0.972419
 H        -0.254529        -2.242749         0.006863
 H        -1.442608        -1.465386        -1.029588
 H        -0.147591         2.132667        -0.154625
 H        -1.259170         1.166322        -1.223069
 H        -2.691947         2.176433         0.899918
