19
Iteration:   947
 C        -3.986540        -0.268607         1.630362
 C        -2.460857        -0.132552         1.461476
 C        -1.653846        -1.442456         1.080898
 C        -0.101822        -1.203724         0.951511
 C         0.138024         0.073088         0.090519
 O         0.614146         0.101988        -1.025079
 C        -0.440047         1.425824         0.724698
 C        -1.902200         1.266461         1.206215
 O        -1.988637         0.749998         2.566779
 H        -4.231514        -0.857297         2.551883
 H        -4.382270         0.700697         1.794009
 H        -4.452114        -0.673378         0.674736
 H        -1.725674        -2.146804         1.908106
 H        -1.936520        -1.932103         0.147403
 H         0.286962        -0.895002         1.953622
 H         0.325949        -2.103341         0.687455
 H         0.018268         1.638985         1.609090
 H        -0.266282         2.230643        -0.049727
 H        -2.629030         2.067174         1.069392
