19
Iteration:    26
 C        -3.890481        -0.118493         2.238352
 C        -2.441822        -0.054815         1.560600
 C        -1.753196        -1.386898         1.199476
 C        -0.850330        -1.250971        -0.036723
 C         0.162258        -0.061337         0.171745
 O         1.324010         0.024288         0.408206
 C        -0.738736         1.196959        -0.048362
 C        -2.040740         1.158476         0.866350
 O        -1.646792         1.041654         2.251676
 H        -4.055275        -1.060505         2.832806
 H        -3.821434         0.732880         2.832668
 H        -4.733714        -0.107534         1.605266
 H        -1.189058        -1.839093         2.133897
 H        -2.633400        -2.127430         0.956187
 H        -0.204196        -2.229524        -0.323829
 H        -1.499800        -1.067497        -0.873766
 H        -0.129508         2.160223         0.203916
 H        -0.947457         1.147039        -1.134868
 H        -2.819599         1.826443         0.595028
