19
Iteration:  3492
 C        -3.978721        -0.451348         1.764865
 C        -2.474339        -0.110202         1.632524
 C        -1.446604        -1.326026         1.429056
 C        -0.513103        -1.286143         0.247594
 C         0.076590         0.107634         0.090328
 O         1.221028         0.344450        -0.350826
 C        -0.888581         1.289005         0.234261
 C        -2.081108         1.159717         1.166019
 O        -1.765422         0.859840         2.527393
 H        -4.129807        -1.572650         2.007650
 H        -4.498839         0.017522         2.566567
 H        -4.827675        -0.343197         0.979122
 H        -0.779412        -1.325748         2.382458
 H        -1.979306        -2.295916         1.361911
 H         0.172118        -2.161699         0.261621
 H        -1.038000        -1.321928        -0.847811
 H        -0.433180         2.158714         0.557030
 H        -1.017326         1.486736        -0.862645
 H        -2.929691         1.792111         0.786194
