19
Iteration:   967
 C        -3.904892        -0.301639         1.376449
 C        -2.391601        -0.065092         1.532589
 C        -1.586213        -1.333543         1.168199
 C        -0.009197        -1.198242         0.981527
 C         0.081648         0.055135         0.146565
 O         0.336237         0.088037        -1.037824
 C        -0.423440         1.292189         0.810732
 C        -1.859329         1.220043         1.227888
 O        -1.991868         0.813826         2.611113
 H        -4.392638        -0.854659         2.228192
 H        -4.398863         0.626782         1.390940
 H        -4.045695        -0.850163         0.391629
 H        -1.738817        -2.205523         1.708172
 H        -1.990503        -1.455657         0.172429
 H         0.572013        -1.247698         1.924184
 H         0.331099        -2.016233         0.379275
 H         0.254528         1.603816         1.585204
 H        -0.375925         2.187060         0.001203
 H        -2.489591         2.036205         0.892309
