19
Iteration:  3306charge 0 multiplicity 1
 C        -3.758076        -0.546670         1.149115
 C        -2.403465        -0.135260         1.649465
 C        -1.221679        -1.196883         1.744679
 C        -0.404695        -1.320256         0.467970
 C         0.044513         0.056767         0.000442
 O         0.646994         0.111638        -1.028981
 C        -0.460489         1.315889         0.871056
 C        -2.006524         1.251310         1.281785
 O        -2.266306         1.023002         2.653686
 H        -4.111051        -1.433256         1.694493
 H        -4.370079         0.357432         1.382016
 H        -3.736137        -0.679899         0.051371
 H        -0.555794        -0.999512         2.672778
 H        -1.720256        -2.190300         1.983998
 H         0.565277        -1.892631         0.491164
 H        -0.941904        -1.825403        -0.305443
 H         0.214612         1.330741         1.855119
 H        -0.305672         2.324362         0.385367
 H        -2.491020         2.044429         0.593107
