19
Iteration:  3759charge 0 multiplicity 1
 C        -3.989838        -0.414996         2.002368
 C        -2.510418        -0.181428         1.473469
 C        -1.718684        -1.388639         1.144773
 C        -0.324942        -1.215573         0.571267
 C         0.036817         0.218004         0.026239
 O         1.176212         0.435285        -0.331760
 C        -0.954287         1.354474         0.114581
 C        -2.032334         1.184691         1.239941
 O        -1.598116         0.602117         2.394948
 H        -4.099610        -1.463129         2.252846
 H        -4.331440         0.112465         2.902506
 H        -4.677469        -0.217922         1.241492
 H        -1.751053        -1.889645         2.129679
 H        -2.310688        -1.931573         0.495199
 H         0.463974        -1.490783         1.322364
 H        -0.169377        -1.929675        -0.316798
 H        -0.215423         2.163640         0.411441
 H        -1.354228         1.599734        -0.805940
 H        -2.722054         2.057753         1.263800
