19
Iteration:  3217charge 0 multiplicity 1
 C        -3.801628        -0.425106         1.370588
 C        -2.414210        -0.117487         1.476497
 C        -1.456341        -1.357729         1.499644
 C        -0.021284        -1.244988         0.899287
 C         0.059509         0.068181         0.078565
 O         0.354785         0.157093        -1.099849
 C        -0.362932         1.359857         0.853767
 C        -1.804601         1.168427         1.158730
 O        -2.266296         0.964516         2.535946
 H        -4.171208        -1.379181         1.427480
 H        -4.460425         0.167320         2.081455
 H        -4.134716        -0.098915         0.402234
 H        -1.406151        -2.035520         2.347553
 H        -1.973564        -1.992709         0.715331
 H         0.678550        -1.132720         1.744981
 H         0.271727        -2.060252         0.285032
 H         0.315476         1.349115         1.805071
 H        -0.325902         2.297114         0.310521
 H        -2.480462         1.815652         0.621843
