19
Iteration:  4531charge 0 multiplicity 1
 C        -3.869704        -0.466238         1.753276
 C        -2.370878        -0.140918         1.693689
 C        -1.399755        -1.276709         1.529657
 C        -0.720747        -1.270105         0.121771
 C         0.020811         0.057510         0.062210
 O         1.131072         0.255235        -0.323194
 C        -0.722393         1.314006         0.360142
 C        -2.088548         1.140189         0.981953
 O        -1.841763         0.912872         2.503506
 H        -3.909920        -1.632919         1.803210
 H        -4.353118        -0.109914         2.675171
 H        -4.547825         0.030150         1.008806
 H        -0.549131        -1.080331         2.242788
 H        -1.690870        -2.228073         1.923896
 H        -0.137352        -2.159513        -0.074374
 H        -1.425440        -1.206475        -0.722053
 H        -0.182538         2.084118         0.874284
 H        -0.926521         1.748560        -0.643499
 H        -2.941557         1.859435         0.782606
