19
Iteration:   999
 C        -3.830517        -0.312992         1.104957
 C        -2.352189        -0.068909         1.439925
 C        -1.607005        -1.451974         1.341738
 C        -0.015567        -1.088014         1.052870
 C         0.041697         0.126021         0.056020
 O         0.041051        -0.051543        -1.168202
 C        -0.223336         1.461690         0.893346
 C        -1.692957         1.346966         1.358770
 O        -2.060945         0.681422         2.677404
 H        -4.225863        -1.096399         1.807500
 H        -4.404909         0.545360         1.020289
 H        -3.846744        -0.655889         0.039186
 H        -1.521625        -1.912805         2.265363
 H        -1.969224        -2.144790         0.636634
 H         0.298300        -0.797314         2.076448
 H         0.453743        -1.980948         0.747409
 H         0.519960         1.475817         1.692712
 H        -0.324337         2.471689         0.211670
 H        -2.394723         2.138141         1.149790
