19
Iteration:  2120charge 0 multiplicity 1
 C        -3.805732        -0.184568         2.117549
 C        -2.423707        -0.098764         1.540412
 C        -1.884752        -1.368482         0.901707
 C        -0.438669        -1.329900         0.445655
 C         0.042954         0.050451         0.058093
 O         1.254741         0.289972         0.037444
 C        -0.957512         1.212744        -0.010447
 C        -1.972228         1.185977         1.092967
 O        -1.675876         0.774934         2.436086
 H        -3.744794        -0.725850         3.114538
 H        -4.189627         0.946448         2.287413
 H        -4.597195        -0.714841         1.499180
 H        -2.082265        -2.125205         1.661916
 H        -2.546613        -1.372487         0.016383
 H         0.304301        -1.682085         1.183426
 H        -0.352932        -2.075644        -0.359462
 H        -0.359451         2.108990         0.040100
 H        -1.542278         1.165984        -0.957500
 H        -2.712671         2.110408         0.981712
