19
Iteration:    45
 C        -3.706304        -0.158051         2.343811
 C        -2.434707        -0.021295         1.627262
 C        -1.761258        -1.306601         1.141124
 C        -0.759530        -1.226315        -0.063243
 C         0.059165        -0.015136         0.161950
 O         1.159719        -0.081763         0.586349
 C        -0.775859         1.230686        -0.108106
 C        -2.005515         1.173430         0.723434
 O        -1.647322         0.978429         2.155562
 H        -3.899955        -1.209526         2.693228
 H        -3.941798         0.442939         3.183375
 H        -4.487623         0.078971         1.606527
 H        -1.171192        -1.735514         1.953421
 H        -2.530015        -2.021855         0.893432
 H        -0.119135        -2.138204        -0.030572
 H        -1.339282        -1.142038        -0.962643
 H        -0.206386         2.146450         0.165008
 H        -1.068720         1.374296        -1.129242
 H        -2.667323         2.017154         0.644681
