19
Iteration:   173
 C        -3.965437        -0.148482         2.200511
 C        -2.579844        -0.037066         1.494833
 C        -1.980576        -1.390514         1.096588
 C        -0.615344        -1.254451         0.328236
 C         0.125882         0.066305         0.129764
 O         1.363540         0.052660         0.052263
 C        -0.687511         1.292530         0.032129
 C        -1.992266         1.264916         0.985684
 O        -1.581873         0.785661         2.304839
 H        -3.905650        -0.578749         3.192952
 H        -4.527085         0.837244         2.297142
 H        -4.609955        -0.936473         1.644677
 H        -1.992071        -2.052408         2.032844
 H        -2.714160        -1.936513         0.386655
 H         0.174113        -1.747168         0.789057
 H        -0.717378        -1.863453        -0.695177
 H        -0.120566         2.174056         0.286361
 H        -0.981904         1.222869        -1.103017
 H        -2.604034         2.230975         1.032802
