19
Iteration:  3622
 C        -3.704590        -0.256470         2.313817
 C        -2.378915        -0.224632         1.564266
 C        -1.705405        -1.459898         1.008665
 C        -0.527718        -1.180794        -0.175574
 C         0.034080         0.114229         0.184014
 O         1.087582         0.454429         0.613025
 C        -1.117388         1.224281        -0.166443
 C        -2.182206         1.093324         0.956296
 O        -1.399489         0.760037         2.225621
 H        -3.417485        -0.149189         3.434470
 H        -4.459165         0.486368         2.123246
 H        -4.161491        -1.359222         2.114847
 H        -1.189960        -1.758433         1.956100
 H        -2.438254        -2.274425         0.621294
 H         0.119018        -2.055140        -0.077103
 H        -1.024323        -0.969640        -1.170086
 H        -0.536687         2.122955        -0.003473
 H        -1.801526         1.277942        -1.110491
 H        -2.949451         1.816288         1.275351
