19
Iteration:   590charge 0 multiplicity 1
 C        -4.038476        -0.229607         1.674576
 C        -2.483306        -0.107047         1.646073
 C        -1.503109        -1.313869         1.563602
 C        -0.602738        -1.239685         0.322835
 C         0.142354        -0.014248         0.080163
 O         1.168929         0.145225        -0.579173
 C        -0.606953         1.230398         0.473238
 C        -2.003857         1.129429         1.112079
 O        -1.910652         0.970018         2.464480
 H        -4.370274        -0.847396         2.575131
 H        -4.534092         0.665112         1.545616
 H        -4.457189        -1.064696         0.893783
 H        -0.876514        -1.380131         2.460735
 H        -2.077334        -2.211525         1.575731
 H         0.086757        -2.148283         0.295646
 H        -1.215249        -1.377713        -0.583453
 H        -0.002994         1.793433         1.145782
 H        -0.665598         1.737517        -0.457656
 H        -2.716103         1.814397         0.694895
