19
Iteration:  3549
 C        -3.832682        -0.530986         2.150536
 C        -2.431823        -0.161816         1.631186
 C        -1.625294        -1.403815         1.245000
 C        -0.603368        -1.196587         0.082811
 C         0.036900         0.173586         0.124656
 O         1.259502         0.328959         0.138663
 C        -0.939398         1.297841         0.060609
 C        -2.124651         1.171808         0.965377
 O        -1.646787         0.887000         2.250507
 H        -3.799691        -1.432701         2.770064
 H        -4.143002         0.281676         2.805494
 H        -4.544787        -0.569979         1.310395
 H        -1.067120        -1.639544         2.199784
 H        -2.247910        -2.270530         1.104965
 H         0.141804        -1.983066         0.001317
 H        -1.086360        -1.112227        -0.935517
 H        -0.459904         2.220933         0.390169
 H        -1.147370         1.394533        -1.007816
 H        -3.045224         1.748167         0.806661
