19
Iteration:  3584charge 0 multiplicity 1
 C        -3.670159        -0.481057         2.295965
 C        -2.405616        -0.169242         1.527959
 C        -1.704961        -1.467770         1.104656
 C        -0.614833        -1.197507         0.011473
 C         0.020592         0.200561         0.057642
 O         1.132185         0.337461         0.463057
 C        -0.989238         1.352132        -0.181155
 C        -2.053492         1.157608         0.980349
 O        -1.618275         0.824453         2.308779
 H        -3.350582        -0.776192         3.264735
 H        -4.305982         0.477946         2.324476
 H        -4.209908        -1.273043         1.913541
 H        -1.113347        -1.901564         1.935715
 H        -2.519611        -2.134263         0.832581
 H         0.245578        -1.860816        -0.038518
 H        -1.065535        -1.179090        -0.966835
 H        -0.361420         2.333631        -0.115731
 H        -1.512522         1.380002        -1.131102
 H        -2.860570         1.895951         0.873004
