19
Iteration:  1096
 C        -4.005300        -0.425565         1.254620
 C        -2.420349        -0.043098         1.449434
 C        -1.579696        -1.291715         1.185329
 C        -0.051229        -1.085691         1.149633
 C         0.147319         0.071487         0.111076
 O         0.118487         0.011653        -1.134475
 C        -0.255864         1.384865         0.863918
 C        -1.701519         1.323913         1.304682
 O        -1.971577         0.695481         2.554590
 H        -4.312033        -1.353786         1.841386
 H        -4.486568         0.460623         1.489381
 H        -4.233164        -0.600437         0.172392
 H        -1.723929        -1.902477         2.175577
 H        -1.770287        -2.024307         0.365791
 H         0.369252        -0.690003         2.123129
 H         0.425389        -2.016309         0.976650
 H         0.371246         1.412404         1.735012
 H        -0.083688         2.334766         0.230260
 H        -2.393900         2.132611         1.104702
