19
Iteration:  4132charge 0 multiplicity 1
 C        -3.885012        -0.445830         1.773978
 C        -2.439071        -0.170704         1.576754
 C        -1.760684        -1.333497         0.960916
 C        -0.214047        -1.012790         0.824631
 C         0.052253         0.124646        -0.006221
 O         0.953866         0.139910        -0.860122
 C        -0.718487         1.441349         0.438234
 C        -2.000842         1.219607         1.337309
 O        -1.818851         0.620807         2.639555
 H        -4.030311        -1.118594         2.624827
 H        -4.482422         0.463693         1.999180
 H        -4.444521        -0.823536         0.858251
 H        -1.880133        -2.224402         1.705700
 H        -2.123454        -1.698835         0.015907
 H         0.103351        -0.684078         1.865394
 H         0.471357        -1.803716         0.485033
 H        -0.194476         2.258148         0.927181
 H        -1.099776         1.855442        -0.500698
 H        -2.743065         2.006025         1.452357
