19
Iteration:  2893charge 0 multiplicity 1
 C        -3.592658        -0.400756         2.398258
 C        -2.493936        -0.158052         1.480448
 C        -1.893938        -1.449198         1.088460
 C        -0.753627        -1.186862         0.119862
 C         0.006881         0.234424         0.256304
 O         1.226939         0.286318         0.609739
 C        -0.883740         1.335821        -0.213895
 C        -2.075516         1.131349         0.794173
 O        -1.493740         0.795675         2.034917
 H        -3.220978        -0.835786         3.412950
 H        -4.116169         0.515524         2.832246
 H        -4.282396        -1.090874         1.919055
 H        -1.651671        -2.008308         2.101749
 H        -2.700431        -1.983441         0.532468
 H         0.149024        -1.926851         0.343810
 H        -0.940879        -1.402105        -0.957286
 H        -0.477834         2.365006        -0.240513
 H        -1.306847         1.278378        -1.393463
 H        -2.783197         1.985025         0.849592
