19
Iteration:  1124charge 0 multiplicity 1
 C        -3.923503        -0.240280         1.432734
 C        -2.441078        -0.125795         1.448662
 C        -1.633430        -1.371732         1.200098
 C        -0.146721        -1.043807         1.000771
 C         0.074965         0.158276         0.113206
 O         0.462446         0.019302        -1.006424
 C        -0.404466         1.414132         0.725869
 C        -1.770664         1.190149         1.248858
 O        -2.003834         0.631267         2.558135
 H        -4.215606        -0.735005         2.353253
 H        -4.345902         0.859464         1.504724
 H        -4.366002        -0.877800         0.683117
 H        -1.761066        -2.122843         1.941646
 H        -1.867468        -1.966808         0.304751
 H         0.430569        -0.877675         1.899470
 H         0.397013        -1.942387         0.510645
 H         0.363126         1.588119         1.580944
 H        -0.334123         2.262531         0.102578
 H        -2.578594         1.906308         1.013745
