19
Iteration:  4020
 C        -4.002731        -0.495440         1.418864
 C        -2.450258        -0.113044         1.416122
 C        -1.481248        -1.264722         1.299659
 C         0.122002        -1.083186         0.964445
 C         0.081708         0.109646         0.056847
 O         0.282722         0.120595        -1.198460
 C        -0.422322         1.412889         0.862138
 C        -1.893129         1.264911         1.338103
 O        -2.005110         0.667619         2.569105
 H        -3.992811        -1.397175         2.171094
 H        -4.589895         0.353976         1.811019
 H        -4.316468        -0.821680         0.392218
 H        -1.709589        -1.847831         2.262380
 H        -1.951032        -1.793743         0.380357
 H         0.605604        -0.734880         1.880354
 H         0.748641        -1.828834         0.437844
 H         0.162362         1.493781         1.822442
 H        -0.197529         2.252929         0.319064
 H        -2.534597         2.018571         1.076066
