19
Iteration:  1764charge 0 multiplicity 1
 C        -3.847509        -0.357929         1.228237
 C        -2.473002        -0.036712         1.600640
 C        -1.393070        -1.202011         1.825396
 C        -0.542600        -1.417851         0.558638
 C        -0.023505        -0.047869        -0.081622
 O         0.842375         0.108178        -0.922338
 C        -0.391793         1.223196         0.751437
 C        -1.857316         1.198319         1.196420
 O        -2.200569         1.090863         2.596911
 H        -4.425553        -0.591093         2.121708
 H        -4.351208         0.585877         0.675107
 H        -3.784074        -1.261470         0.631570
 H        -0.738578        -0.762249         2.570525
 H        -1.744600        -2.143894         2.165915
 H         0.424374        -1.987767         0.782505
 H        -0.957525        -2.182332        -0.119143
 H         0.306336         1.259716         1.653619
 H        -0.112206         2.006039         0.006877
 H        -2.419971         1.874411         0.540938
