19
Iteration:  4842
 C        -3.858637        -0.482226         1.324938
 C        -2.331918        -0.157993         1.592135
 C        -1.293775        -1.198291         1.773114
 C        -0.344378        -1.286638         0.547175
 C         0.078454         0.045997         0.101288
 O         0.499441         0.186730        -1.033387
 C        -0.415141         1.306004         0.808376
 C        -1.894385         1.207003         1.140807
 O        -2.165203         0.963199         2.521065
 H        -4.223760        -1.502503         1.662388
 H        -4.480389         0.133813         1.999844
 H        -4.100079        -0.368389         0.255890
 H        -0.792077        -1.062729         2.691336
 H        -1.795398        -2.171375         1.981657
 H         0.598513        -1.853481         0.778236
 H        -0.928369        -1.721248        -0.269684
 H         0.006256         1.441874         1.818916
 H        -0.113360         2.042268         0.043477
 H        -2.681027         1.748292         0.547501
