19
Iteration:   631
 C        -3.928743        -0.409203         1.925016
 C        -2.431658        -0.035073         1.585456
 C        -1.615838        -1.341379         1.361773
 C        -0.608380        -1.220157         0.223672
 C         0.041363         0.065109         0.075139
 O         1.239800        -0.030232        -0.174080
 C        -0.722994         1.347737         0.177498
 C        -2.006657         1.311523         1.075779
 O        -1.833093         0.933854         2.448977
 H        -3.961107        -1.306573         2.550702
 H        -4.412866         0.419762         2.409540
 H        -4.569258        -0.453672         1.049773
 H        -1.170454        -1.575904         2.337821
 H        -2.257081        -2.129323         1.052771
 H         0.228905        -1.971007         0.364191
 H        -1.118558        -1.504167        -0.766117
 H         0.062857         2.200426         0.370515
 H        -1.064523         1.570764        -0.841452
 H        -2.815587         1.953416         0.775547
