19
Iteration:  3578charge 0 multiplicity 1
 C        -3.686274        -0.528225         2.268044
 C        -2.401927        -0.129201         1.552642
 C        -1.700810        -1.445537         1.110772
 C        -0.613268        -1.233014         0.031825
 C        -0.005649         0.217041         0.100324
 O         1.160796         0.323169         0.409675
 C        -1.017956         1.322153        -0.120524
 C        -2.058390         1.219532         0.932178
 O        -1.590896         0.827224         2.296461
 H        -3.297184        -0.913193         3.273248
 H        -4.129307         0.440608         2.319961
 H        -4.275678        -1.342450         1.681780
 H        -1.206574        -1.642105         2.082576
 H        -2.489523        -2.201501         0.814454
 H         0.207079        -1.979600        -0.012416
 H        -1.134544        -1.104602        -0.986999
 H        -0.605932         2.268522         0.175245
 H        -1.302792         1.380282        -1.214367
 H        -2.914979         1.905523         0.867368
