19
Iteration:  1128charge 0 multiplicity 1
 C        -3.894211        -0.212893         1.458641
 C        -2.401613        -0.154052         1.471773
 C        -1.627869        -1.362214         1.161936
 C        -0.167111        -1.062923         0.999824
 C         0.067128         0.133597         0.119036
 O         0.513944         0.030800        -1.004378
 C        -0.444529         1.414173         0.708914
 C        -1.787263         1.195457         1.243741
 O        -2.011943         0.629312         2.561008
 H        -4.316699        -0.624056         2.445996
 H        -4.286138         0.774574         1.494474
 H        -4.362700        -0.847946         0.663429
 H        -1.794377        -2.132621         2.046479
 H        -1.990592        -1.938777         0.256716
 H         0.440438        -0.936292         1.953147
 H         0.286683        -1.871248         0.452527
 H         0.194914         1.671576         1.531082
 H        -0.438553         2.307205         0.068645
 H        -2.573833         1.895078         0.979770
