19
Iteration:  3554
 C        -3.816754        -0.526017         2.186891
 C        -2.452465        -0.161466         1.622226
 C        -1.612007        -1.383355         1.237225
 C        -0.627751        -1.208791         0.066966
 C         0.011792         0.139972         0.146463
 O         1.251250         0.337071         0.182939
 C        -0.933730         1.297466         0.074266
 C        -2.161639         1.188973         0.967885
 O        -1.607348         0.875292         2.199265
 H        -3.533019        -1.488607         2.672980
 H        -4.177345         0.404497         2.707917
 H        -4.372760        -0.782903         1.261440
 H        -0.948783        -1.607187         2.049217
 H        -2.463862        -2.118980         1.002045
 H         0.189593        -1.952500         0.083401
 H        -1.031276        -1.063819        -0.931834
 H        -0.366294         2.269006         0.323109
 H        -1.226664         1.314556        -1.010356
 H        -3.103407         1.758997         0.900691
