19
Iteration:  3665charge 0 multiplicity 1
 C        -3.714900        -0.465305         2.344151
 C        -2.495128        -0.148073         1.558097
 C        -1.756675        -1.439882         1.032856
 C        -0.605532        -1.218690         0.115562
 C         0.011139         0.227918         0.022900
 O         1.127540         0.451233         0.466389
 C        -0.996732         1.377832        -0.248829
 C        -1.987607         1.141095         0.976548
 O        -1.499863         0.690111         2.291543
 H        -3.483163        -0.428312         3.467373
 H        -4.589212         0.154428         2.343186
 H        -4.135865        -1.498392         1.946127
 H        -1.376247        -2.170592         1.769097
 H        -2.540694        -2.054911         0.367523
 H         0.242495        -1.824122         0.412196
 H        -0.970115        -1.482905        -0.862767
 H        -0.471645         2.301112         0.082309
 H        -1.267799         1.389555        -1.412882
 H        -2.745503         1.947904         0.948034
