19
Iteration:  2481
 C        -3.777219        -0.312533         1.417855
 C        -2.361886        -0.146528         1.697754
 C        -1.425897        -1.334764         1.598047
 C        -0.360172        -1.341026         0.521901
 C         0.091158         0.034888        -0.002160
 O         0.826578         0.163834        -0.987727
 C        -0.532822         1.275928         0.775304
 C        -2.000826         1.178442         1.160302
 O        -2.229407         1.030628         2.599230
 H        -4.499969        -0.495295         2.265249
 H        -4.218850         0.653739         1.035498
 H        -4.124975        -1.021082         0.572579
 H        -1.045763        -1.731149         2.572987
 H        -2.094897        -2.213489         1.283477
 H         0.663303        -1.681089         1.026699
 H        -0.586494        -2.066662        -0.320242
 H        -0.015734         1.461085         1.635802
 H        -0.337938         2.033791         0.106001
 H        -2.753241         1.986503         0.781960
