19
Iteration:  2037
 C        -3.696257        -0.184795         2.395498
 C        -2.505077        -0.055081         1.459941
 C        -1.928245        -1.323203         0.725318
 C        -0.446550        -1.377233         0.388510
 C        -0.023175         0.005085         0.090195
 O         1.078215         0.376729         0.481783
 C        -0.996550         1.083959        -0.204692
 C        -1.938972         1.262427         1.010087
 O        -1.429210         0.788479         2.210222
 H        -3.435711        -0.749596         3.239624
 H        -3.987933         0.708597         2.805621
 H        -4.559722        -0.617441         1.972800
 H        -2.344381        -2.236382         1.161639
 H        -2.548632        -1.481822        -0.183513
 H         0.118322        -1.722673         1.244480
 H        -0.383816        -2.092319        -0.480067
 H        -0.391037         1.882532        -0.507506
 H        -1.711245         0.975026        -1.030706
 H        -2.558544         2.048522         1.126766
