19
Iteration:  1681
 C        -3.746433        -0.385547         1.035230
 C        -2.340855        -0.028386         1.475999
 C        -1.534011        -1.290970         1.811789
 C        -0.234405        -1.490682         0.917706
 C         0.048998        -0.015890         0.123861
 O         0.080032         0.201609        -1.075628
 C        -0.166745         1.235389         1.003061
 C        -1.637253         1.241566         1.064173
 O        -2.168559         1.091723         2.419011
 H        -4.050599        -1.180809         1.754997
 H        -4.345573         0.411836         1.163133
 H        -3.821299        -0.667033        -0.052597
 H        -1.218870        -1.382706         2.877896
 H        -2.246927        -2.232360         1.738467
 H         0.546547        -1.530540         1.602623
 H        -0.271815        -2.248564         0.123003
 H         0.187956         1.306334         1.999218
 H         0.247091         2.024221         0.454015
 H        -2.176743         1.916213         0.423521
