19
Iteration:  2894charge 0 multiplicity 1
 C        -3.597979        -0.392413         2.406535
 C        -2.494550        -0.159129         1.476212
 C        -1.889717        -1.452528         1.089036
 C        -0.750644        -1.180246         0.117787
 C         0.012335         0.228828         0.266407
 O         1.233474         0.285976         0.604458
 C        -0.889692         1.336695        -0.210834
 C        -2.077554         1.127168         0.799987
 O        -1.491605         0.792837         2.023280
 H        -3.260038        -0.839234         3.440420
 H        -4.129292         0.477120         2.806806
 H        -4.323279        -1.078976         1.924085
 H        -1.668624        -1.952920         2.082144
 H        -2.690113        -1.990671         0.516910
 H         0.153562        -1.920802         0.332997
 H        -0.940424        -1.415465        -0.950954
 H        -0.461544         2.390374        -0.250235
 H        -1.331000         1.275754        -1.335238
 H        -2.803176         1.982209         0.845782
