19
Iteration:  1857
 C        -3.918455        -0.353548         1.817590
 C        -2.411093        -0.089132         1.576446
 C        -1.416297        -1.167821         1.457521
 C        -0.725356        -1.332176         0.133918
 C         0.057897        -0.051955        -0.009501
 O         1.220159         0.012632        -0.276150
 C        -0.610307         1.300087         0.472983
 C        -2.053434         1.194703         1.006698
 O        -2.015958         1.001165         2.438498
 H        -4.070353        -0.962490         2.730244
 H        -4.215356         0.606282         2.054666
 H        -4.473713        -0.732500         0.953711
 H        -0.688603        -0.724161         2.148235
 H        -1.633363        -2.205065         1.769576
 H        -0.117010        -2.210611        -0.060198
 H        -1.466728        -1.373271        -0.727852
 H        -0.178194         1.647600         1.432103
 H        -0.503522         2.045361        -0.362888
 H        -2.850293         1.966208         0.778973
