19
Iteration:  2071
 C        -3.776716        -0.136894         2.283576
 C        -2.468259        -0.137543         1.566109
 C        -2.119420        -1.332763         0.796172
 C        -0.631490        -1.181952         0.555355
 C         0.068530         0.173931         0.331835
 O         1.261627         0.405676         0.287550
 C        -0.987764         1.147884        -0.253266
 C        -2.046820         1.105829         0.948110
 O        -1.260659         0.547991         2.156890
 H        -3.575443        -0.420823         3.294703
 H        -4.209970         0.740427         2.203225
 H        -4.397239        -0.914440         1.870297
 H        -2.298406        -2.253783         1.378364
 H        -2.662695        -1.133730        -0.123267
 H        -0.030048        -1.758757         1.250990
 H        -0.399531        -1.708285        -0.391060
 H        -0.605435         2.161732        -0.539641
 H        -1.511791         0.689879        -1.040747
 H        -2.609469         1.961174         1.050030
