19
Iteration:  3223charge 0 multiplicity 1
 C        -3.820954        -0.389693         1.368152
 C        -2.348880        -0.124799         1.492391
 C        -1.442366        -1.327965         1.464058
 C        -0.018019        -1.250896         0.875395
 C         0.102633         0.062377         0.108050
 O         0.355775         0.143808        -1.108827
 C        -0.371024         1.339472         0.896892
 C        -1.865442         1.181029         1.179542
 O        -2.274539         0.958657         2.516724
 H        -4.288115        -1.488795         1.453198
 H        -4.377534         0.081956         2.187782
 H        -4.228953        -0.115454         0.345749
 H        -1.334766        -1.831306         2.459635
 H        -2.036026        -2.062910         0.873748
 H         0.822566        -1.161837         1.585043
 H         0.082511        -2.151397         0.174757
 H         0.090097         1.467840         1.821226
 H        -0.274289         2.244056         0.256677
 H        -2.473116         1.794423         0.466463
