19
Iteration:  3351
 C        -3.796314        -0.719775         1.332906
 C        -2.362443        -0.119249         1.665967
 C        -1.314590        -1.240824         1.871777
 C        -0.705868        -1.210956         0.338078
 C         0.026033         0.125073        -0.048629
 O         0.835185         0.244742        -0.958670
 C        -0.346396         1.313698         0.847004
 C        -1.846202         1.156685         1.226041
 O        -2.305985         1.037684         2.533165
 H        -4.359716        -0.868642         2.293636
 H        -4.280587        -0.136360         0.618545
 H        -3.689653        -1.691392         0.780128
 H        -0.384633        -0.971409         2.503318
 H        -1.666548        -2.252021         2.114768
 H        -0.077986        -2.125136         0.206963
 H        -1.499625        -1.371446        -0.393852
 H         0.243193         1.403465         1.868045
 H        -0.049136         2.226307         0.211538
 H        -2.431725         1.909567         0.580073
