19
Iteration:  3790charge 0 multiplicity 1
 C        -3.935329        -0.335300         1.867395
 C        -2.402618        -0.257516         1.616999
 C        -1.723653        -1.412797         0.984758
 C        -0.218650        -1.154699         0.734903
 C         0.117226         0.277382         0.120111
 O         1.068000         0.324626        -0.640502
 C        -0.921719         1.375043         0.224462
 C        -2.026898         1.139413         1.226666
 O        -1.759638         0.638197         2.615355
 H        -4.191811        -1.368060         2.049065
 H        -4.366507         0.306186         2.720214
 H        -4.483225        -0.164638         0.981917
 H        -2.028511        -2.272658         1.689578
 H        -2.262436        -1.549693         0.074875
 H         0.198366        -1.207071         1.747469
 H         0.323558        -1.877678         0.057445
 H        -0.380842         2.352676         0.226837
 H        -1.344156         1.332848        -0.826040
 H        -2.902708         1.749157         1.162543
