19
Iteration:   656
 C        -3.901635        -0.292243         2.076723
 C        -2.448748        -0.024044         1.584308
 C        -1.723849        -1.363299         1.261197
 C        -0.709915        -1.281005         0.060242
 C         0.144986         0.013565         0.123877
 O         1.372609         0.159554         0.058226
 C        -0.871542         1.222665         0.053940
 C        -2.050202         1.206574         1.069608
 O        -1.697820         0.940554         2.395894
 H        -3.828379        -1.270332         2.586374
 H        -4.377114         0.516083         2.544497
 H        -4.632667        -0.408222         1.187503
 H        -1.131649        -1.561911         2.151404
 H        -2.363287        -2.178767         1.096853
 H        -0.118765        -2.248420         0.126986
 H        -1.186853        -1.269684        -0.976689
 H        -0.295498         2.124840         0.242688
 H        -1.167683         1.331632        -0.983253
 H        -2.799311         1.865886         0.798972
