19
Iteration:   727charge 0 multiplicity 1
 C        -3.695244        -0.233981         2.369360
 C        -2.419537        -0.061122         1.514469
 C        -1.836703        -1.380841         1.019784
 C        -0.646284        -1.310058         0.011577
 C        -0.066239         0.018742         0.209554
 O         1.057109         0.285232         0.644794
 C        -0.938117         1.221396        -0.209551
 C        -1.983264         1.248730         0.905903
 O        -1.401240         0.792325         2.136853
 H        -3.328569        -0.613755         3.318160
 H        -4.366109         0.641497         2.288662
 H        -4.287506        -1.011504         1.942605
 H        -1.481135        -2.030381         1.848016
 H        -2.684272        -1.952837         0.484878
 H         0.152773        -2.000231         0.130064
 H        -1.024067        -1.388351        -0.951257
 H        -0.219204         1.981302        -0.261804
 H        -1.412013         1.236825        -1.202789
 H        -2.659062         2.150416         0.851133
