19
Iteration:  1806charge 0 multiplicity 1
 C        -3.866592        -0.544787         1.518784
 C        -2.356505        -0.057353         1.639586
 C        -1.490287        -1.234039         1.726385
 C        -0.802567        -1.153378         0.356822
 C         0.113815         0.071735         0.067585
 O         1.054683        -0.108469        -0.707097
 C        -0.374683         1.340988         0.613387
 C        -1.859692         1.189145         1.107385
 O        -2.198736         1.103058         2.459170
 H        -3.973821        -1.307396         2.285571
 H        -4.726439         0.288277         1.657337
 H        -3.905287        -1.018034         0.565706
 H        -0.813690        -1.186468         2.647326
 H        -2.030317        -2.246380         1.879709
 H        -0.196222        -2.026744        -0.002916
 H        -1.522378        -1.084900        -0.465715
 H         0.204481         1.656965         1.457207
 H        -0.370651         2.119429        -0.188881
 H        -2.584305         1.831080         0.550515
