19
Iteration:   931
 C        -3.984446        -0.273192         1.730756
 C        -2.536038        -0.164234         1.435303
 C        -1.712387        -1.354451         1.141022
 C        -0.240417        -1.025978         0.944387
 C         0.082525         0.175162         0.044655
 O         0.808185         0.058383        -0.937585
 C        -0.461335         1.377731         0.633185
 C        -1.839384         1.174202         1.206143
 O        -1.943904         0.618406         2.497989
 H        -3.950837        -1.021249         2.523594
 H        -4.452602         0.722485         2.045491
 H        -4.663804        -0.608434         0.977017
 H        -1.995231        -2.093457         1.919703
 H        -2.159486        -1.705512         0.192755
 H         0.176361        -0.864970         1.937997
 H         0.384811        -1.773147         0.305236
 H         0.345570         1.698608         1.462834
 H        -0.563432         2.167240        -0.138071
 H        -2.517198         2.010558         0.944395
