19
Iteration:  2955
 C        -3.868493        -0.244253         2.041016
 C        -2.408370        -0.150267         1.615839
 C        -1.772914        -1.502900         1.121068
 C        -0.530409        -1.325387         0.172888
 C         0.033116         0.125894         0.076591
 O         1.233067         0.396288         0.201624
 C        -0.980793         1.252609        -0.147431
 C        -1.961938         1.175792         1.076672
 O        -1.595920         0.822914         2.463866
 H        -3.936703        -0.922114         2.839589
 H        -4.222070         0.840126         2.268736
 H        -4.441895        -0.675257         1.196554
 H        -1.685599        -2.273664         1.927050
 H        -2.543628        -2.002669         0.569130
 H         0.307394        -1.844728         0.559000
 H        -0.935071        -1.586515        -0.801626
 H        -0.435111         2.144955        -0.085211
 H        -1.619385         1.112883        -0.965363
 H        -2.638943         2.013719         1.168441
