19
Iteration:   537
 C        -3.907051        -0.540655         1.447933
 C        -2.443616         0.007687         1.589219
 C        -1.460305        -1.170441         1.683547
 C        -0.602141        -1.248876         0.403169
 C         0.020973         0.032087        -0.000709
 O         0.926498        -0.006531        -0.842699
 C        -0.345818         1.253072         0.732316
 C        -1.843713         1.282609         1.176273
 O        -2.169651         1.010184         2.571836
 H        -4.423210        -0.873646         2.386264
 H        -4.517027         0.131633         0.889197
 H        -3.906023        -1.347366         0.626313
 H        -0.790324        -0.916730         2.548907
 H        -2.052804        -2.110840         1.939998
 H         0.159448        -2.040961         0.324285
 H        -1.274789        -1.465949        -0.382051
 H         0.238719         1.263618         1.620008
 H        -0.062792         2.101804         0.106066
 H        -2.370220         2.102566         0.669341
