19
Iteration:   384
 C        -3.983123        -0.168041         1.084108
 C        -2.462111        -0.092286         1.557061
 C        -1.432412        -1.335286         1.597491
 C         0.060015        -1.290109         0.949996
 C         0.057601        -0.055686         0.093480
 O         0.147163         0.073396        -1.138357
 C        -0.274162         1.202377         0.973023
 C        -1.674362         1.212349         1.183574
 O        -2.159442         1.000366         2.476522
 H        -4.707271        -0.489258         1.910031
 H        -4.261330         0.817553         0.831807
 H        -4.082137        -0.816214         0.219686
 H        -1.164345        -1.634268         2.691661
 H        -2.128368        -2.192897         1.182833
 H         0.816213        -1.276719         1.815395
 H         0.149158        -2.106283         0.349919
 H         0.373359         1.116596         1.929032
 H         0.036784         2.118686         0.544457
 H        -2.226622         1.888120         0.609871
