19
Iteration:  3871charge 0 multiplicity 1
 C        -3.916122        -0.472080         1.692939
 C        -2.390158        -0.170189         1.442196
 C        -1.556018        -1.344468         0.974266
 C        -0.062278        -1.076756         0.997792
 C         0.021232         0.238543         0.144298
 O         0.545958         0.121297        -0.903607
 C        -0.619742         1.499130         0.627125
 C        -2.001540         1.216768         1.177050
 O        -1.833776         0.624698         2.520637
 H        -3.932491        -0.791930         2.738944
 H        -4.572778         0.324792         1.544812
 H        -4.178351        -1.343428         1.040145
 H        -1.805627        -2.146483         1.678558
 H        -1.884097        -1.705089         0.026867
 H         0.223131        -1.072589         2.093546
 H         0.460601        -1.872134         0.453680
 H        -0.062964         1.938492         1.519248
 H        -0.513603         2.196510        -0.173298
 H        -2.703617         2.123424         1.300310
