19
Iteration:  4043charge 0 multiplicity 1
 C        -3.901728        -0.473248         1.467528
 C        -2.385306        -0.160859         1.510755
 C        -1.527010        -1.364792         1.107960
 C        -0.094630        -1.020156         1.058923
 C         0.082743         0.171881         0.123382
 O         0.288838         0.167211        -1.078678
 C        -0.448885         1.457776         0.717195
 C        -1.807963         1.211206         1.257855
 O        -1.949088         0.626757         2.585886
 H        -4.125864        -1.007254         2.468985
 H        -4.540641         0.384777         1.364512
 H        -4.115253        -1.190142         0.609243
 H        -1.693625        -2.086097         1.993292
 H        -2.023611        -1.773329         0.207957
 H         0.375162        -0.839502         2.052322
 H         0.447281        -1.815082         0.515109
 H         0.159448         1.934411         1.530724
 H        -0.382900         2.067056        -0.116371
 H        -2.423166         2.039115         1.100871
