19
Iteration:  3053charge 0 multiplicity 1
 C        -4.025664        -0.366933         1.893625
 C        -2.553577        -0.141666         1.580221
 C        -1.707855        -1.441956         1.155962
 C        -0.259381        -1.302256         0.649572
 C         0.142020         0.052155         0.033673
 O         1.129803         0.245476        -0.640264
 C        -0.635656         1.392151         0.449561
 C        -2.051472         1.185587         1.087259
 O        -1.893226         0.925128         2.480214
 H        -4.200494        -1.155827         2.616899
 H        -4.575213         0.576410         2.389977
 H        -4.492951        -0.596989         0.891267
 H        -1.809324        -2.237883         1.878867
 H        -2.283237        -1.846526         0.337476
 H         0.434164        -1.510343         1.465969
 H        -0.114384        -1.915014        -0.272239
 H        -0.096142         1.725061         1.405231
 H        -0.612447         2.052485        -0.423030
 H        -2.787750         1.943467         0.846175
