19
Iteration:  1374charge 0 multiplicity 1
 C        -3.852532        -0.318663         2.349022
 C        -2.495864        -0.071822         1.517914
 C        -1.702088        -1.363547         1.188062
 C        -0.716792        -1.306767        -0.062319
 C         0.054819         0.085721         0.206717
 O         1.253278         0.156461         0.370330
 C        -0.772983         1.291349        -0.020199
 C        -2.016374         1.252035         0.855735
 O        -1.650369         0.847561         2.185771
 H        -3.608147        -0.961830         3.155271
 H        -4.407011         0.674207         2.712329
 H        -4.595039        -0.873261         1.775404
 H        -1.046142        -1.627659         2.071202
 H        -2.338589        -2.303249         1.026147
 H        -0.048535        -2.110594        -0.132695
 H        -1.426975        -1.120601        -0.929198
 H        -0.150928         2.163943         0.218144
 H        -1.159827         1.433117        -1.038981
 H        -2.683206         2.126355         0.622130
