19
Iteration:  2829
 C        -3.716587        -0.180950         2.162014
 C        -2.355706        -0.141587         1.631272
 C        -1.643689        -1.409869         1.123635
 C        -0.576551        -1.241990         0.023157
 C        -0.013160         0.123834         0.137262
 O         1.107376         0.316332         0.518489
 C        -1.082487         1.171150        -0.262280
 C        -1.998522         1.146201         0.999210
 O        -1.561270         0.797279         2.321086
 H        -3.926848        -0.870058         3.074150
 H        -4.113375         0.793332         2.479260
 H        -4.455134        -0.476048         1.358673
 H        -1.081356        -1.983206         1.814444
 H        -2.497532        -1.973676         0.683827
 H         0.145182        -2.149971        -0.037302
 H        -0.945626        -1.308458        -1.022107
 H        -0.678389         2.179416        -0.516467
 H        -1.582239         0.747883        -1.076686
 H        -2.799099         1.911368         0.851690
