19
Iteration:  4583charge 0 multiplicity 1
 C        -3.948501        -0.553315         1.797143
 C        -2.450584        -0.138929         1.690923
 C        -1.381605        -1.162933         1.506176
 C        -0.599953        -1.178839         0.222570
 C         0.146889         0.120264         0.044444
 O         1.186445         0.007120        -0.583060
 C        -0.711986         1.413652         0.362347
 C        -2.076914         1.208664         1.120767
 O        -2.035447         0.878078         2.558179
 H        -4.079380        -1.637454         1.417544
 H        -4.427695        -0.522946         2.766312
 H        -4.362521         0.105851         1.053729
 H        -0.641620        -0.891164         2.321156
 H        -1.608176        -2.131353         1.828031
 H         0.115841        -1.944434         0.273378
 H        -1.062982        -1.486019        -0.746100
 H        -0.262058         2.038711         1.075055
 H        -0.814256         2.168588        -0.539331
 H        -2.857882         1.915482         0.798403
