19
Iteration:  4222charge 0 multiplicity 1
 C        -4.017961        -0.398176         2.114293
 C        -2.492714        -0.198005         1.690897
 C        -1.813590        -1.332840         0.944985
 C        -0.400535        -1.154181         0.508076
 C         0.078112         0.237529         0.064971
 O         1.252213         0.334210        -0.208624
 C        -1.039590         1.359852        -0.009381
 C        -2.006708         1.094446         1.174475
 O        -1.462308         0.655665         2.410297
 H        -4.127943        -1.444646         2.165002
 H        -4.292436         0.155785         3.068905
 H        -4.617407         0.022266         1.292091
 H        -1.951434        -2.377201         1.490909
 H        -2.467328        -1.370211         0.088180
 H         0.316951        -1.326352         1.345931
 H         0.072576        -1.927180        -0.121395
 H        -0.639751         2.334887        -0.037494
 H        -1.699767         1.105731        -0.855944
 H        -2.748078         1.971473         1.266977
