19
Iteration:  2246
 C        -3.984446        -0.350014         1.649408
 C        -2.486000        -0.058822         1.507424
 C        -1.759606        -1.368496         1.075246
 C        -0.275521        -1.180885         0.937560
 C         0.072666         0.057609         0.052877
 O         0.909607         0.049138        -0.819342
 C        -0.596974         1.404382         0.479324
 C        -1.899633         1.318659         1.261624
 O        -1.820320         0.736952         2.584960
 H        -4.144853        -1.224177         2.325231
 H        -4.484432         0.514979         1.961529
 H        -4.278169        -0.593655         0.575963
 H        -2.053084        -2.162498         1.791577
 H        -2.288261        -1.713066         0.182148
 H         0.027589        -0.916472         1.984327
 H         0.294399        -2.066604         0.564877
 H         0.166864         1.975894         0.938647
 H        -0.840154         1.885892        -0.521017
 H        -2.530942         2.131240         1.159634
