19
Iteration:  4506
 C        -3.923299        -0.484211         1.879362
 C        -2.439109        -0.263951         1.636143
 C        -1.365513        -1.294743         1.482467
 C        -0.611006        -1.187256         0.121133
 C         0.028488         0.163763        -0.141437
 O         1.232307         0.055722        -0.204509
 C        -0.790646         1.442948         0.222429
 C        -2.101751         1.196642         1.110192
 O        -1.893890         0.906102         2.483710
 H        -4.289267        -1.540768         2.061052
 H        -4.155159         0.141030         2.757206
 H        -4.598096         0.066346         1.202994
 H        -0.663168        -1.247986         2.342092
 H        -1.726607        -2.277981         1.588546
 H         0.168638        -1.930650         0.135485
 H        -1.336855        -1.398206        -0.695538
 H        -0.153408         2.079172         0.796960
 H        -1.195862         2.125841        -0.634642
 H        -2.878853         1.995236         1.039785
