19
Iteration:  3655
 C        -3.686726        -0.436598         2.316716
 C        -2.381405        -0.185107         1.578285
 C        -1.806666        -1.504605         1.067258
 C        -0.603622        -1.129146         0.057076
 C        -0.060303         0.217020         0.127994
 O         1.075344         0.430339         0.517124
 C        -0.978817         1.397367        -0.244157
 C        -2.005099         1.169608         0.940759
 O        -1.472790         0.668450         2.221961
 H        -3.390967        -0.489928         3.421174
 H        -4.426287         0.295790         2.045340
 H        -4.026352        -1.566822         2.142667
 H        -1.492885        -2.050051         2.011361
 H        -2.494804        -2.246636         0.505513
 H         0.199371        -1.832326         0.238572
 H        -0.823480        -1.354377        -1.020515
 H        -0.430267         2.333596        -0.270478
 H        -1.554980         1.318328        -1.298102
 H        -2.769963         1.962446         1.075638
