19
Iteration:  1751
 C        -3.894181        -0.340893         1.190103
 C        -2.405497        -0.048907         1.660697
 C        -1.380335        -1.109883         1.837650
 C        -0.405895        -1.362765         0.602160
 C        -0.042806        -0.089962        -0.102458
 O         0.772223         0.127277        -1.013462
 C        -0.366417         1.059232         0.778983
 C        -1.762183         1.213607         1.191572
 O        -2.305591         1.067892         2.590155
 H        -4.561908        -0.442226         2.083691
 H        -4.335949         0.584685         0.547814
 H        -4.114501        -1.161568         0.526098
 H        -0.857131        -0.935757         2.824202
 H        -1.945637        -2.095581         2.028915
 H         0.588039        -1.619580         1.073803
 H        -0.844145        -2.038415        -0.086336
 H         0.397496         0.958236         1.538575
 H        -0.146682         2.091620         0.358624
 H        -2.436993         1.978593         0.739881
