19
Iteration:   880charge 0 multiplicity 1
 C        -3.936801        -0.233920         1.865818
 C        -2.493248        -0.108660         1.561925
 C        -1.812700        -1.236282         0.873225
 C        -0.353801        -1.216183         0.790473
 C         0.074613         0.054336         0.121754
 O         1.092354         0.202542        -0.525763
 C        -0.844047         1.283005         0.210319
 C        -1.898852         1.181758         1.244544
 O        -1.664749         0.644668         2.603529
 H        -4.176394        -1.115713         2.517290
 H        -4.346876         0.672084         2.355863
 H        -4.429138        -0.388949         0.860736
 H        -2.145599        -2.180457         1.276327
 H        -2.247215        -1.175936        -0.148981
 H         0.093289        -1.283373         1.792404
 H         0.048765        -1.983612         0.129623
 H        -0.311050         2.137307         0.261126
 H        -1.494787         1.251105        -0.758908
 H        -2.496569         2.101202         1.242682
