19
Iteration:  4114
 C        -4.011929        -0.449027         1.747324
 C        -2.554763        -0.078554         1.512086
 C        -1.631252        -1.360606         1.008055
 C        -0.169345        -1.034526         1.005780
 C         0.149086         0.199964         0.055814
 O         0.810293         0.199035        -1.009945
 C        -0.664970         1.407394         0.395692
 C        -1.825014         1.226691         1.369569
 O        -1.872243         0.501138         2.650754
 H        -4.092971        -0.927644         2.694026
 H        -4.739561         0.439994         1.780499
 H        -4.356398        -1.113741         0.969787
 H        -1.882074        -2.254714         1.642183
 H        -2.060983        -1.566424         0.007098
 H        -0.023144        -0.732702         2.051203
 H         0.347848        -2.003963         0.782940
 H         0.160373         2.092006         0.646019
 H        -1.235242         1.987981        -0.474050
 H        -2.485603         2.215158         1.285064
