19
Iteration:  4146charge 0 multiplicity 1
 C        -3.918481        -0.426108         1.842019
 C        -2.451078        -0.190965         1.592975
 C        -1.684866        -1.307802         1.008695
 C        -0.267683        -1.092005         0.774035
 C         0.027327         0.218910        -0.000846
 O         0.985865         0.158608        -0.717407
 C        -0.823597         1.429318         0.420829
 C        -2.030080         1.154097         1.222555
 O        -1.720204         0.653033         2.581802
 H        -4.070495        -1.292384         2.432890
 H        -4.305686         0.508788         2.363371
 H        -4.392732        -0.592003         0.872234
 H        -1.887363        -2.319608         1.555939
 H        -2.183725        -1.393185         0.033629
 H         0.382615        -1.089886         1.683372
 H         0.114017        -1.948078         0.154778
 H        -0.041188         1.937592         0.978748
 H        -1.059823         2.110020        -0.498250
 H        -2.877355         1.945442         1.048055
