19
Iteration:  1650charge 0 multiplicity 1
 C        -3.711271        -0.226638         0.889592
 C        -2.381463         0.002934         1.561424
 C        -1.352220        -1.235727         1.841891
 C        -0.145651        -1.239020         0.818669
 C        -0.021582         0.002809         0.088016
 O         0.023549        -0.070887        -1.139446
 C        -0.146579         1.102935         1.057235
 C        -1.626796         1.245422         1.180816
 O        -2.355482         1.029932         2.520651
 H        -4.382402        -1.100959         1.376710
 H        -4.218230         0.657801         1.102768
 H        -3.788542        -0.578893        -0.227279
 H        -0.914841        -1.172150         2.881270
 H        -1.764871        -2.350184         1.581804
 H         0.744369        -1.203476         1.447575
 H        -0.027124        -2.009235         0.012458
 H         0.193949         0.979928         2.028752
 H         0.328034         1.924728         0.631063
 H        -2.139689         1.960975         0.579380
