19
Iteration:  1534charge 0 multiplicity 1
 C        -3.996606        -0.448324         1.361571
 C        -2.485318        -0.049348         1.501982
 C        -1.377323        -1.146052         1.820151
 C        -0.530364        -1.393633         0.477394
 C         0.068949        -0.053441         0.015818
 O         0.740167         0.162907        -1.004428
 C        -0.240398         1.089871         0.980143
 C        -1.752533         1.160286         1.118499
 O        -2.236201         1.184283         2.463080
 H        -4.231353        -0.999144         2.232672
 H        -4.730258         0.443532         1.312777
 H        -4.100840        -1.150208         0.599428
 H        -0.673812        -0.542644         2.404375
 H        -1.675589        -1.988169         2.389622
 H         0.290646        -2.077123         0.848666
 H        -1.065184        -1.894013        -0.348249
 H         0.200382         1.276391         2.060371
 H         0.074754         2.028075         0.314525
 H        -2.268146         1.729560         0.302369
