19
Iteration:  2629charge 0 multiplicity 1
 C        -3.905849        -0.505732         1.527223
 C        -2.462144        -0.063861         1.591293
 C        -1.491059        -1.229302         1.587033
 C        -0.532181        -1.330717         0.312520
 C         0.108379         0.013512        -0.071265
 O         1.120516         0.108953        -0.723146
 C        -0.544775         1.333432         0.509236
 C        -1.899165         1.266017         1.267766
 O        -2.209901         0.990007         2.676814
 H        -4.031283        -1.465476         1.965679
 H        -4.667345         0.127275         2.131319
 H        -4.526256        -0.669081         0.695685
 H        -0.852908        -0.898134         2.405658
 H        -1.837519        -2.188234         1.853344
 H         0.230145        -1.934155         0.726457
 H        -0.954624        -1.714046        -0.619156
 H         0.208059         1.702803         1.162672
 H        -0.624603         2.056950        -0.359445
 H        -2.654217         1.887898         0.871502
