19
Iteration:   259charge 0 multiplicity 1
 C        -4.068280        -0.052458         1.659845
 C        -2.548360        -0.096833         1.508607
 C        -1.829432        -1.290895         1.060983
 C        -0.283344        -0.985690         1.085124
 C         0.151111         0.052748         0.086729
 O         0.978517        -0.193595        -0.735508
 C        -0.655878         1.411744         0.347087
 C        -1.844928         1.234595         1.225753
 O        -1.716714         0.535928         2.494881
 H        -4.431489        -0.884082         2.190003
 H        -4.358403         0.923412         2.175582
 H        -4.553498        -0.117337         0.692330
 H        -2.078824        -2.174445         1.742104
 H        -2.213413        -1.646436         0.004973
 H         0.091565        -0.646142         2.020414
 H         0.128671        -2.034339         0.841654
 H        -0.024631         2.230735         0.564243
 H        -1.119767         1.716994        -0.646417
 H        -2.527072         2.135589         1.350087
