19
Iteration:  4647charge 0 multiplicity 1
 C        -3.858442        -0.567596         1.690041
 C        -2.396363        -0.167497         1.683858
 C        -1.373619        -1.267182         1.649613
 C        -0.485667        -1.165849         0.309954
 C         0.171099         0.104574        -0.003287
 O         1.064551         0.023556        -0.787872
 C        -0.691351         1.342715         0.632018
 C        -2.062163         1.082561         1.050189
 O        -2.147421         1.158916         2.522852
 H        -4.125687        -0.685691         0.625130
 H        -4.256503        -1.413305         2.228042
 H        -4.416565         0.212901         2.119032
 H        -0.833489        -1.386712         2.640510
 H        -2.029534        -2.168025         1.572025
 H         0.298040        -1.884257         0.284149
 H        -1.228889        -1.177792        -0.554433
 H        -0.132307         1.619658         1.521205
 H        -0.661269         2.180169        -0.128679
 H        -2.788683         1.732516         0.559308
