19
Iteration:   455
 C        -3.729801        -0.409138         0.945491
 C        -2.437902        -0.068968         1.587602
 C        -1.424417        -1.093101         1.840791
 C        -0.397681        -1.374172         0.645370
 C         0.071146        -0.025376         0.082509
 O         0.340987         0.079650        -1.114656
 C        -0.244073         1.156308         0.975943
 C        -1.704360         1.220431         1.231664
 O        -2.209982         1.078739         2.596421
 H        -4.072546        -1.237748         1.564586
 H        -4.535085         0.471867         1.127463
 H        -3.532244        -0.765275        -0.105157
 H        -0.884100        -0.747594         2.673933
 H        -1.875829        -1.964189         2.191014
 H         0.375825        -2.049758         0.976013
 H        -1.059874        -1.890383        -0.174708
 H         0.242331         1.129090         1.981845
 H         0.164505         2.101360         0.501191
 H        -2.402831         1.836980         0.610591
