19
Iteration:  1471
 C        -3.979939        -0.404216         1.557695
 C        -2.455425        -0.078054         1.667958
 C        -1.481920        -1.233796         1.617505
 C        -0.690444        -1.343496         0.297793
 C         0.104904        -0.048776         0.017261
 O         1.158075         0.028571        -0.587385
 C        -0.571066         1.337645         0.467227
 C        -1.906337         1.276403         1.174262
 O        -2.035564         1.022149         2.561600
 H        -4.358563        -1.002659         2.365614
 H        -4.611880         0.599983         1.256960
 H        -4.089103        -0.971683         0.632962
 H        -0.655891        -1.064481         2.405363
 H        -1.870128        -2.243515         1.974090
 H         0.058857        -2.086931         0.308682
 H        -1.395688        -1.534538        -0.535707
 H         0.125438         1.870881         0.993945
 H        -0.586723         1.860428        -0.512281
 H        -2.670425         1.977587         0.713573
