19
Iteration:  3601charge 0 multiplicity 1
 C        -3.743258        -0.331770         2.390572
 C        -2.387373        -0.244456         1.630822
 C        -1.600751        -1.462368         1.014074
 C        -0.623301        -1.209683        -0.141776
 C         0.021242         0.238680         0.047075
 O         1.066869         0.410069         0.564028
 C        -0.959941         1.277018        -0.167049
 C        -2.000192         1.136791         0.955845
 O        -1.613397         0.769524         2.270677
 H        -3.421262        -0.332701         3.486166
 H        -4.291562         0.554631         2.147030
 H        -4.247502        -1.359016         2.076374
 H        -1.294862        -1.957022         1.961487
 H        -2.277532        -2.061448         0.367471
 H         0.132436        -1.959510         0.136889
 H        -1.174902        -1.444203        -1.151384
 H        -0.684607         2.280701        -0.140552
 H        -1.478597         0.995241        -1.146469
 H        -2.835326         1.852198         0.959162
