19
Iteration:   780
 C        -3.652740        -0.188835         2.417576
 C        -2.446306        -0.068554         1.497619
 C        -1.942088        -1.330962         0.717663
 C        -0.517678        -1.344609         0.203785
 C        -0.032297         0.070406         0.287257
 O         1.150949         0.283962         0.527018
 C        -1.065686         1.098215        -0.138468
 C        -2.071177         1.196502         0.952160
 O        -1.394707         0.843209         2.138156
 H        -3.433841        -0.819706         3.296077
 H        -3.916126         0.858462         2.912131
 H        -4.380086        -0.748711         1.857643
 H        -1.886578        -2.124945         1.442529
 H        -2.726825        -1.676006         0.000202
 H         0.253029        -1.910155         0.656176
 H        -0.563503        -1.626312        -0.888723
 H        -0.547098         1.998491        -0.040166
 H        -1.383296         0.940900        -1.201776
 H        -2.619063         2.175921         0.874229
