19
Iteration:  4936
 C        -3.737903        -0.526387         1.475182
 C        -2.308303        -0.122483         1.598635
 C        -1.290486        -1.187678         1.784125
 C        -0.491959        -1.306951         0.443272
 C        -0.081761         0.013963        -0.018732
 O         0.653417         0.250223        -0.969322
 C        -0.452844         1.290140         0.836306
 C        -1.856527         1.236384         1.156383
 O        -2.247088         0.906171         2.426258
 H        -4.273020        -0.174377         2.286215
 H        -4.148736         0.135900         0.594765
 H        -3.633865        -1.530992         1.202187
 H        -0.697551        -0.857171         2.742740
 H        -1.573615        -2.232149         2.121704
 H         0.373072        -1.955890         0.481811
 H        -1.244527        -1.622249        -0.305908
 H         0.015572         1.138494         1.904415
 H        -0.073186         2.259403         0.513938
 H        -2.491576         1.862240         0.606544
