19
Iteration:  4590
 C        -3.973424        -0.519536         1.786099
 C        -2.449579        -0.147878         1.595177
 C        -1.347200        -1.142905         1.563394
 C        -0.618064        -1.217581         0.274469
 C         0.134168         0.070449         0.005422
 O         1.175145         0.076741        -0.590344
 C        -0.713516         1.398580         0.422246
 C        -2.102513         1.211778         1.105032
 O        -1.993309         0.856755         2.529612
 H        -3.988845        -1.479041         1.369295
 H        -4.178216        -0.596634         2.893815
 H        -4.627726         0.019058         1.073356
 H        -0.638134        -0.756148         2.267500
 H        -1.767721        -2.213123         1.843193
 H         0.151800        -2.071067         0.407894
 H        -1.155808        -1.383963        -0.696841
 H        -0.081823         2.010982         1.194509
 H        -0.784514         2.067151        -0.372515
 H        -2.853549         1.914599         0.748045
