19
Iteration:  4717charge 0 multiplicity 1
 C        -3.798934        -0.548689         1.382387
 C        -2.364442        -0.035298         1.754483
 C        -1.219119        -1.217378         1.794957
 C        -0.509076        -1.346386         0.427147
 C         0.013132         0.075451        -0.052935
 O         0.909711         0.047174        -0.903122
 C        -0.588531         1.309810         0.621366
 C        -2.067948         1.212268         1.130889
 O        -2.195308         1.059094         2.608978
 H        -3.794584        -0.294688         0.305804
 H        -4.132148        -1.634102         1.474966
 H        -4.596099        -0.007936         1.984552
 H        -0.412320        -1.068934         2.598066
 H        -1.766209        -2.126689         2.088714
 H         0.432060        -1.947463         0.429433
 H        -1.244858        -1.418013        -0.407418
 H        -0.132118         1.556675         1.590597
 H        -0.443029         2.309932         0.119528
 H        -2.793122         1.821036         0.597285
