19
Iteration:  2897charge 0 multiplicity 1
 C        -3.618365        -0.375400         2.435388
 C        -2.490342        -0.157882         1.466755
 C        -1.880703        -1.459721         1.082864
 C        -0.725470        -1.169502         0.116472
 C         0.036755         0.208568         0.289567
 O         1.239603         0.285583         0.587539
 C        -0.911476         1.342767        -0.207829
 C        -2.085195         1.125215         0.811609
 O        -1.485997         0.783785         1.998404
 H        -3.361147        -0.837820         3.414067
 H        -4.191632         0.441656         2.727339
 H        -4.414667        -1.033458         1.962986
 H        -1.686657        -1.839129         2.013717
 H        -2.640749        -2.018807         0.511206
 H         0.093796        -1.857303         0.297278
 H        -0.963819        -1.419465        -0.923360
 H        -0.446332         2.392319        -0.230128
 H        -1.347505         1.235068        -1.122589
 H        -2.836474         1.946699         0.833449
