19
Iteration:  4007charge 0 multiplicity 1
 C        -3.890886        -0.463830         1.380161
 C        -2.388848        -0.133324         1.474364
 C        -1.399141        -1.348484         1.286584
 C         0.038543        -1.005061         0.908773
 C        -0.004484         0.180378        -0.004922
 O         0.288326         0.070852        -1.142675
 C        -0.399603         1.378086         0.896854
 C        -1.849057         1.252411         1.282716
 O        -2.127690         0.722950         2.625444
 H        -4.202601        -1.452461         1.852613
 H        -4.449293         0.321952         2.024980
 H        -4.374288        -0.512216         0.401615
 H        -1.333436        -1.938288         2.189997
 H        -1.782905        -2.138949         0.535890
 H         0.668812        -0.834186         1.756150
 H         0.334267        -1.970072         0.445946
 H         0.229635         1.374111         1.783190
 H        -0.321548         2.328739         0.325512
 H        -2.504393         2.080761         1.025904
