19
Iteration:  2211
 C        -4.033359        -0.152019         1.725976
 C        -2.498337        -0.141931         1.647657
 C        -1.735744        -1.426251         1.238260
 C        -0.272191        -1.254121         0.718342
 C         0.157284         0.116791         0.083550
 O         1.126911         0.165397        -0.686971
 C        -0.732414         1.296939         0.362339
 C        -2.032039         1.165112         1.132204
 O        -1.827133         0.790310         2.542289
 H        -4.577874        -1.111461         1.866309
 H        -4.380968         0.515777         2.511695
 H        -4.537626         0.215871         0.761626
 H        -1.703389        -2.055076         2.109008
 H        -2.290627        -1.893908         0.431912
 H         0.478927        -1.644492         1.411247
 H        -0.112745        -1.937255        -0.153924
 H        -0.112881         1.910939         0.869246
 H        -0.868253         1.830346        -0.617916
 H        -2.777620         1.905078         1.006884
