19
Iteration:  4985
 C        -3.863608        -0.673171         1.532148
 C        -2.411084        -0.111700         1.771657
 C        -1.349515        -1.210368         1.729803
 C        -0.586341        -1.217647         0.404632
 C         0.072828         0.152930        -0.092229
 O         0.879649         0.147197        -1.000892
 C        -0.328282         1.302978         0.731554
 C        -1.928055         1.166474         1.148241
 O        -2.297589         1.024339         2.536801
 H        -4.330090        -1.000645         2.542128
 H        -4.511805         0.063754         1.154786
 H        -3.626557        -1.488894         0.782919
 H        -0.699243        -0.987051         2.552296
 H        -1.879609        -2.138134         2.047606
 H         0.181673        -2.022028         0.282529
 H        -1.341222        -1.263427        -0.408502
 H         0.359039         1.183699         1.664716
 H        -0.087489         2.321228         0.279879
 H        -2.524876         1.965309         0.584708
