19
Iteration:  3570charge 0 multiplicity 1
 C        -3.677613        -0.539679         2.225122
 C        -2.391015        -0.112024         1.551275
 C        -1.657960        -1.369231         1.132598
 C        -0.635159        -1.217601         0.028890
 C        -0.021967         0.154251         0.183482
 O         1.201847         0.332755         0.334226
 C        -1.006373         1.324100        -0.024988
 C        -2.148453         1.198967         0.910265
 O        -1.565580         0.839301         2.240628
 H        -3.534059        -1.070381         3.177352
 H        -4.352460         0.249279         2.573511
 H        -4.329934        -1.162961         1.533061
 H        -1.272879        -1.736040         2.145620
 H        -2.264475        -2.206574         0.876466
 H         0.070819        -2.058046         0.065513
 H        -1.226321        -1.376326        -0.987099
 H        -0.533577         2.248514         0.229418
 H        -1.262906         1.335814        -1.094245
 H        -2.850461         2.053302         0.999576
