19
Iteration:  3142charge 0 multiplicity 1
 C        -3.881825        -0.223325         1.379143
 C        -2.396741        -0.186097         1.436763
 C        -1.524033        -1.380314         0.987064
 C         0.007671        -0.992631         1.239470
 C         0.091889         0.189373         0.195121
 O         0.401006        -0.089968        -0.971276
 C        -0.621709         1.459081         0.521504
 C        -1.843015         1.221384         1.347447
 O        -1.925206         0.574922         2.625286
 H        -4.337199        -0.671348         2.313002
 H        -4.350296         0.791586         1.168342
 H        -4.468911        -0.750040         0.636056
 H        -1.840126        -2.265113         1.588142
 H        -1.756970        -1.629528        -0.004191
 H         0.181436        -0.593296         2.291625
 H         0.773823        -1.722179         1.108897
 H        -0.055069         2.375652         0.936681
 H        -1.060932         1.881362        -0.377110
 H        -2.555775         2.036265         1.368494
