19
Iteration:  2852
 C        -3.680248        -0.265444         2.284020
 C        -2.389772        -0.091058         1.575282
 C        -1.714510        -1.418941         0.982677
 C        -0.510269        -1.328931        -0.113393
 C         0.014684         0.052022         0.097886
 O         1.108212         0.316477         0.659733
 C        -1.090405         1.141175        -0.150853
 C        -2.103518         1.192890         0.982248
 O        -1.520605         0.960778         2.217508
 H        -3.567607        -0.808104         3.308269
 H        -4.139645         0.611379         2.633877
 H        -4.615470        -0.740477         1.861092
 H        -1.256287        -1.925610         1.790580
 H        -2.592371        -1.932980         0.531594
 H         0.237972        -2.168598         0.133981
 H        -0.811241        -1.713391        -1.094891
 H        -0.635628         2.200862        -0.169483
 H        -1.394327         0.862946        -1.080483
 H        -2.777877         2.092336         0.960783
