19
Iteration:  2034
 C        -3.689964        -0.210621         2.414568
 C        -2.517405        -0.046193         1.419746
 C        -1.939745        -1.320542         0.746871
 C        -0.437403        -1.399263         0.378276
 C        -0.009318         0.023875         0.059581
 O         1.066271         0.374112         0.488462
 C        -0.983507         1.077068        -0.204134
 C        -1.903797         1.267335         0.992738
 O        -1.456740         0.803921         2.244131
 H        -3.398720        -0.874499         3.256376
 H        -3.977030         0.839000         2.936182
 H        -4.601863        -0.534244         1.920473
 H        -2.304805        -2.240704         1.222480
 H        -2.484280        -1.585019        -0.194881
 H         0.140722        -1.727412         1.260643
 H        -0.477277        -2.066227        -0.557101
 H        -0.348460         1.873618        -0.480694
 H        -1.716090         0.947046        -1.158456
 H        -2.648046         2.111653         1.181564
