19
Iteration:  2226charge 0 multiplicity 1
 C        -4.079099        -0.262624         1.640175
 C        -2.522549        -0.113034         1.693753
 C        -1.785388        -1.282251         1.219953
 C        -0.274600        -1.184691         0.817096
 C         0.171651         0.070046         0.139168
 O         0.968918         0.161590        -0.755413
 C        -0.653745         1.289007         0.376130
 C        -1.925992         1.107623         1.111260
 O        -1.739917         0.782309         2.558362
 H        -4.309535        -1.300407         1.891174
 H        -4.555021         0.501131         2.228075
 H        -4.292205        -0.231457         0.541133
 H        -1.941572        -2.246093         1.813915
 H        -2.309942        -1.559778         0.254800
 H         0.422161        -1.413938         1.685793
 H        -0.157320        -1.942134         0.016486
 H        -0.111605         2.068455         1.138015
 H        -0.804383         1.875703        -0.571766
 H        -2.618635         1.938743         0.966727
