19
Iteration:  3418
 C        -3.969968        -0.539438         1.647061
 C        -2.493497        -0.167374         1.604644
 C        -1.371196        -1.258515         1.639263
 C        -0.557942        -1.274692         0.304931
 C         0.108801         0.068873        -0.034439
 O         1.078765         0.355747        -0.767144
 C        -0.553635         1.287179         0.646616
 C        -1.977725         1.120039         1.116643
 O        -2.110778         0.914956         2.561740
 H        -4.260630        -0.603028         2.719497
 H        -4.571556         0.123156         1.124779
 H        -4.305260        -1.496504         1.226679
 H        -0.708153        -0.966293         2.477244
 H        -1.908194        -2.171269         1.716141
 H         0.291343        -1.953247         0.336237
 H        -0.997718        -1.404352        -0.632821
 H         0.221121         1.657587         1.415193
 H        -0.575672         2.090620        -0.143155
 H        -2.753519         1.849574         0.724827
