19
Iteration:   588
 C        -4.041098        -0.223696         1.664461
 C        -2.483546        -0.095337         1.668955
 C        -1.482223        -1.324070         1.562512
 C        -0.586060        -1.239466         0.317817
 C         0.150947        -0.025452         0.087898
 O         1.145813         0.139761        -0.590497
 C        -0.600328         1.227941         0.472742
 C        -2.010270         1.119526         1.114103
 O        -1.934609         0.972582         2.463199
 H        -4.353044        -0.786698         2.571544
 H        -4.545924         0.651423         1.441368
 H        -4.446951        -1.012255         0.916658
 H        -0.856304        -1.339433         2.448479
 H        -1.986294        -2.216522         1.542968
 H         0.086389        -2.159626         0.294905
 H        -1.225167        -1.388120        -0.625428
 H         0.034627         1.802825         1.222236
 H        -0.685622         1.800249        -0.410556
 H        -2.621575         1.864676         0.754384
