19
Iteration:  3056
 C        -4.046500        -0.377756         1.886952
 C        -2.526968        -0.124312         1.573740
 C        -1.719202        -1.426275         1.161657
 C        -0.272974        -1.307695         0.666569
 C         0.138635         0.074757         0.042993
 O         1.100422         0.240210        -0.655582
 C        -0.593081         1.375509         0.450445
 C        -2.047435         1.205892         1.094898
 O        -1.913736         0.897956         2.473625
 H        -4.143564        -1.186091         2.701319
 H        -4.531320         0.503425         2.352564
 H        -4.357983        -0.676952         0.888386
 H        -1.834397        -2.280479         1.913763
 H        -2.242655        -1.764587         0.271025
 H         0.500999        -1.462708         1.504472
 H        -0.044458        -1.902215        -0.201416
 H        -0.048930         1.764419         1.265077
 H        -0.565602         2.039163        -0.376253
 H        -2.764624         2.002937         0.839094
