19
Iteration:  2616
 C        -3.895244        -0.538411         1.568075
 C        -2.457598        -0.094968         1.568051
 C        -1.378732        -1.178047         1.581863
 C        -0.585449        -1.256440         0.327195
 C         0.067577         0.095132        -0.010532
 O         1.049761        -0.024977        -0.700901
 C        -0.516859         1.395990         0.635366
 C        -1.947671         1.229331         1.180257
 O        -2.203296         0.956369         2.573321
 H        -3.910633        -1.549760         1.929443
 H        -4.387290         0.140528         2.231955
 H        -4.117866        -0.448228         0.490866
 H        -0.640280        -0.925148         2.347710
 H        -1.855774        -2.081918         1.906002
 H         0.242283        -1.891275         0.280222
 H        -1.193490        -1.648088        -0.544149
 H         0.133560         1.741153         1.311567
 H        -0.554782         2.203034        -0.144575
 H        -2.560729         2.008716         0.807333
