19
Iteration:  3856
 C        -3.883768        -0.541917         1.783558
 C        -2.485247        -0.169324         1.395944
 C        -1.665461        -1.421819         0.948202
 C        -0.179649        -0.986418         0.964171
 C         0.097193         0.253832         0.176501
 O         0.671332         0.060061        -0.880156
 C        -0.603631         1.630469         0.541558
 C        -1.903777         1.245918         1.291220
 O        -1.865070         0.561602         2.503538
 H        -3.888929        -0.863804         2.846417
 H        -4.558180         0.372381         1.727809
 H        -4.362536        -1.215933         1.129428
 H        -1.775118        -2.275532         1.676409
 H        -1.861532        -1.578187        -0.114859
 H         0.210200        -0.825067         1.968978
 H         0.522699        -1.715943         0.456067
 H         0.084016         2.296787         1.134261
 H        -0.914954         2.102930        -0.416738
 H        -2.730638         1.900013         1.172175
