19
Iteration:  3588charge 0 multiplicity 1
 C        -3.661593        -0.426129         2.304599
 C        -2.400428        -0.202192         1.523445
 C        -1.681672        -1.462310         1.102581
 C        -0.622179        -1.166962        -0.013862
 C         0.001789         0.179274         0.037803
 O         1.136999         0.354640         0.495684
 C        -0.958670         1.373428        -0.198284
 C        -2.053877         1.122460         0.996242
 O        -1.633037         0.822624         2.305124
 H        -3.390692        -0.691252         3.385117
 H        -4.403089         0.375562         2.392596
 H        -4.279280        -1.325775         1.959047
 H        -1.165616        -2.060479         1.851680
 H        -2.511353        -2.180630         0.776935
 H         0.233077        -1.864631        -0.000131
 H        -1.068893        -1.318820        -0.999894
 H        -0.330721         2.281146        -0.246965
 H        -1.651356         1.322364        -1.099093
 H        -2.817546         1.909197         0.941334
