19
Iteration:  3243charge 0 multiplicity 1
 C        -3.914594        -0.427595         1.349320
 C        -2.491635        -0.075856         1.484358
 C        -1.376960        -1.338961         1.613748
 C        -0.033271        -1.254022         0.735509
 C         0.103256         0.106108         0.145918
 O         0.394226         0.134009        -1.054410
 C        -0.370407         1.323577         0.890236
 C        -1.903329         1.234845         1.070438
 O        -2.164329         0.912517         2.501789
 H        -4.243296        -1.499830         1.378004
 H        -4.507012        -0.009013         2.078600
 H        -4.310980        -0.107714         0.365220
 H        -1.025557        -1.534922         2.649133
 H        -1.817753        -2.240408         1.331161
 H         0.729851        -1.551358         1.485930
 H         0.045789        -1.874896        -0.196661
 H         0.102241         1.216378         1.850934
 H        -0.083719         2.272741         0.394243
 H        -2.610995         2.057263         0.792477
