19
Iteration:  2224charge 0 multiplicity 1
 C        -4.083999        -0.250680         1.657063
 C        -2.527958        -0.107371         1.687640
 C        -1.762006        -1.301287         1.223736
 C        -0.278578        -1.186240         0.810255
 C         0.176801         0.078022         0.136691
 O         0.987064         0.165420        -0.749875
 C        -0.666194         1.290597         0.378041
 C        -1.946360         1.104157         1.104806
 O        -1.742751         0.782693         2.562690
 H        -4.343664        -1.296004         1.919701
 H        -4.543171         0.474797         2.210662
 H        -4.246262        -0.094567         0.522857
 H        -1.930855        -2.225166         1.817254
 H        -2.327963        -1.573012         0.314048
 H         0.394031        -1.493539         1.657888
 H        -0.179416        -1.916332        -0.041172
 H        -0.155188         1.957550         1.064001
 H        -0.795809         1.870068        -0.606458
 H        -2.571512         1.882338         0.940665
