19
Iteration:  2720charge 0 multiplicity 1
 C        -4.026455        -0.450778         1.952067
 C        -2.623075        -0.067395         1.581696
 C        -1.685844        -1.272345         1.292344
 C        -0.434196        -1.297139         0.326159
 C         0.186539         0.042144         0.105980
 O         1.295261         0.256744        -0.460776
 C        -0.730240         1.240919         0.324816
 C        -1.992334         1.158147         1.062534
 O        -1.867427         0.939992         2.480322
 H        -4.065405        -0.754174         3.063325
 H        -4.674701         0.486282         1.775162
 H        -4.402603        -1.252492         1.304514
 H        -1.333656        -1.678661         2.241055
 H        -2.382120        -2.134148         1.024965
 H         0.286674        -2.016601         0.885314
 H        -0.707542        -1.622649        -0.681568
 H        -0.152335         2.087467         0.949761
 H        -0.919930         1.758216        -0.597906
 H        -2.671774         2.027175         0.755360
