19
Iteration:   932
 C        -3.982729        -0.269775         1.726535
 C        -2.531812        -0.161181         1.430216
 C        -1.705282        -1.366553         1.141210
 C        -0.234590        -1.031882         0.947763
 C         0.085139         0.166662         0.048094
 O         0.797952         0.061636        -0.946386
 C        -0.456730         1.377190         0.645727
 C        -1.846525         1.179437         1.206741
 O        -1.948113         0.626191         2.501298
 H        -3.973840        -1.028561         2.532339
 H        -4.440816         0.717232         2.027776
 H        -4.673907        -0.620789         0.966722
 H        -1.976257        -2.094363         1.890181
 H        -2.166005        -1.705229         0.212947
 H         0.182485        -0.876667         1.942735
 H         0.384477        -1.771330         0.318409
 H         0.334648         1.693721         1.448385
 H        -0.552483         2.205800        -0.146944
 H        -2.510776         2.019926         0.936450
