19
Iteration:  3199charge 0 multiplicity 1
 C        -3.913084        -0.452435         1.266308
 C        -2.376502        -0.136761         1.607103
 C        -1.554178        -1.437448         1.401658
 C        -0.072918        -1.069714         1.045513
 C         0.017332         0.115455         0.054898
 O         0.365552         0.121567        -1.131204
 C        -0.289422         1.357712         0.790651
 C        -1.821681         1.228309         1.203060
 O        -2.096247         0.891289         2.551522
 H        -4.217390        -1.589347         1.563083
 H        -4.617949        -0.023230         1.937612
 H        -4.218230        -0.432447         0.184990
 H        -1.584337        -2.065241         2.350318
 H        -2.053370        -1.990881         0.661959
 H         0.586819        -0.657356         1.860613
 H         0.361085        -1.964749         0.542013
 H         0.214048         1.391260         1.753049
 H        -0.067910         2.188236         0.105271
 H        -2.469548         1.965307         0.650415
