19
Iteration:  1336charge 0 multiplicity 1
 C        -3.660929        -0.124292         2.289331
 C        -2.355166        -0.107900         1.549831
 C        -1.881669        -1.432362         0.968646
 C        -0.650685        -1.268674         0.002223
 C         0.025460         0.095275         0.189666
 O         1.144336         0.247093         0.610602
 C        -1.014673         1.272389        -0.132038
 C        -2.026608         1.148480         0.887808
 O        -1.463698         0.764560         2.206020
 H        -3.387507        -0.467808         3.357845
 H        -4.155256         0.808796         2.363667
 H        -4.335123        -0.905752         1.790727
 H        -1.695513        -2.126273         1.808069
 H        -2.796399        -1.765676         0.519928
 H         0.062289        -2.160185         0.125814
 H        -0.914916        -1.369655        -1.017395
 H        -0.499315         2.235330        -0.122315
 H        -1.392910         0.999852        -1.106589
 H        -2.839314         1.856595         0.954801
