19
Iteration:  1617
 C        -3.630864        -0.325756         0.774848
 C        -2.344442        -0.008488         1.469181
 C        -1.439692        -1.169989         1.880323
 C        -0.251569        -1.405132         0.906272
 C         0.007678        -0.028339         0.090779
 O         0.070832         0.040329        -1.151809
 C        -0.223022         1.230672         0.889698
 C        -1.678209         1.294040         1.329485
 O        -2.204946         0.969449         2.622032
 H        -4.365663        -0.858878         1.544158
 H        -4.111318         0.576358         0.539377
 H        -3.497500        -0.844175        -0.275587
 H        -1.145222        -0.865305         2.910728
 H        -2.024588        -2.195189         2.018788
 H         0.548679        -1.923942         1.459201
 H        -0.448869        -2.200233         0.164297
 H         0.373490         1.318774         1.743412
 H        -0.129243         2.003113         0.203149
 H        -2.229152         2.075698         0.850474
