19
Iteration:    23charge 0 multiplicity 1
 C        -3.881062        -0.114639         2.213206
 C        -2.475015        -0.063070         1.545273
 C        -1.774333        -1.429578         1.219000
 C        -0.826731        -1.260008        -0.025352
 C         0.173853        -0.057542         0.157269
 O         1.338390         0.028405         0.380855
 C        -0.755446         1.184267        -0.023195
 C        -2.014149         1.166864         0.879650
 O        -1.642185         1.056614         2.258883
 H        -4.020563        -0.990291         2.869761
 H        -3.997635         0.757551         2.850626
 H        -4.735994        -0.099362         1.516928
 H        -1.220619        -1.792699         2.094824
 H        -2.558544        -2.162757         0.996315
 H        -0.238551        -2.153099        -0.305460
 H        -1.549335        -1.009100        -0.803536
 H        -0.204773         2.111310         0.207908
 H        -1.023516         1.246849        -1.081405
 H        -2.787240         1.898553         0.629353
