19
Iteration:  3466
 C        -3.823992        -0.548893         1.685668
 C        -2.439591        -0.158845         1.650724
 C        -1.484151        -1.386458         1.563367
 C        -0.586417        -1.229182         0.376834
 C         0.026505         0.190086        -0.042945
 O         1.124747         0.245957        -0.491491
 C        -0.743831         1.422448         0.323473
 C        -1.979092         1.204264         1.167564
 O        -1.932522         0.841928         2.535994
 H        -4.049670        -1.555527         1.967104
 H        -4.604589         0.204981         2.116679
 H        -4.259652        -0.545874         0.684282
 H        -0.963811        -1.486636         2.500366
 H        -2.125872        -2.249031         1.257499
 H         0.320021        -1.867714         0.501482
 H        -1.043576        -1.594257        -0.673728
 H        -0.155268         2.300002         0.782223
 H        -0.966552         1.789051        -0.674812
 H        -2.711890         1.966599         0.920303
