19
Iteration:  3436charge 0 multiplicity 1
 C        -3.912581        -0.486096         1.667665
 C        -2.467627        -0.228253         1.678914
 C        -1.399315        -1.299710         1.527492
 C        -0.436309        -1.204682         0.305568
 C         0.123670         0.156533         0.056129
 O         1.096940         0.187452        -0.724211
 C        -0.690037         1.375137         0.507844
 C        -2.037341         1.200867         1.161453
 O        -2.078624         0.884413         2.585711
 H        -4.316814        -0.999134         2.592780
 H        -4.516978         0.401895         1.312657
 H        -4.089905        -1.254328         0.833299
 H        -0.722435        -1.244014         2.415719
 H        -1.931249        -2.304156         1.416559
 H         0.275353        -2.048014         0.428169
 H        -1.218567        -1.445293        -0.502157
 H        -0.216990         1.988887         1.209981
 H        -0.753155         1.966121        -0.422901
 H        -2.824215         1.911097         0.852720
