19
Iteration:  2466
 C        -3.888610        -0.340139         1.436546
 C        -2.409079        -0.086758         1.634215
 C        -1.478401        -1.329922         1.570438
 C        -0.258357        -1.266443         0.553304
 C        -0.051906         0.052481        -0.047774
 O         0.806127         0.105812        -0.945620
 C        -0.473908         1.278666         0.744084
 C        -1.889672         1.224947         1.166526
 O        -2.207522         0.956688         2.601630
 H        -4.220515        -1.020431         2.214031
 H        -4.474295         0.691035         1.361029
 H        -3.955208        -0.921053         0.561078
 H        -1.037641        -1.382379         2.590624
 H        -2.120598        -2.205979         1.401683
 H         0.675434        -1.379813         1.202963
 H        -0.277917        -2.042538        -0.226501
 H         0.203095         1.125147         1.677830
 H        -0.250886         2.272418         0.242005
 H        -2.598459         1.758490         0.559407
