19
Iteration:  2524charge 0 multiplicity 1
 C        -3.958114        -0.545854         1.478275
 C        -2.446445        -0.116997         1.523655
 C        -1.404643        -1.131945         1.722801
 C        -0.635952        -1.190011         0.427284
 C         0.071238         0.092065         0.049125
 O         0.906898         0.079463        -0.903509
 C        -0.371451         1.365045         0.790809
 C        -1.889016         1.249249         1.170298
 O        -2.108047         0.829087         2.485289
 H        -4.301780        -0.502854         2.545879
 H        -4.507943         0.274871         0.917858
 H        -4.044880        -1.514446         0.897428
 H        -0.758542        -0.941918         2.628574
 H        -1.959020        -2.138975         1.885459
 H         0.221808        -2.009185         0.588836
 H        -1.060160        -1.744329        -0.445220
 H         0.219611         1.557833         1.657294
 H        -0.159527         2.196860         0.205162
 H        -2.687205         1.911929         0.631052
