19
Iteration:  3097charge 0 multiplicity 1
 C        -3.992946        -0.401298         1.661522
 C        -2.533115        -0.104197         1.425879
 C        -1.713303        -1.364533         1.019337
 C        -0.140392        -1.029041         1.030998
 C         0.133942         0.152544         0.058887
 O         0.856859        -0.023081        -0.884651
 C        -0.631681         1.452424         0.489184
 C        -1.920284         1.312469         1.307903
 O        -1.865566         0.653632         2.581433
 H        -4.205970        -0.819424         2.651038
 H        -4.830510         0.400945         1.541345
 H        -4.408776        -1.152195         1.000899
 H        -2.040272        -2.160233         1.682224
 H        -2.035726        -1.700313         0.055237
 H         0.120023        -0.724235         2.043324
 H         0.360881        -1.957109         0.748580
 H         0.230614         1.886989         1.133733
 H        -0.741860         2.036755        -0.425401
 H        -2.593715         2.154521         1.264194
