19
Iteration:  2810charge 0 multiplicity 1
 C        -3.847168        -0.261067         2.089084
 C        -2.419471        -0.135515         1.551991
 C        -1.727042        -1.473286         1.284847
 C        -0.700740        -1.257346         0.133081
 C         0.026661         0.143127         0.064889
 O         1.158823         0.421748         0.393875
 C        -0.977075         1.232279        -0.159747
 C        -1.985522         1.124882         0.957333
 O        -1.434902         0.751849         2.290838
 H        -3.895950        -1.087565         2.849495
 H        -4.116150         0.672490         2.497145
 H        -4.521401        -0.468543         1.176935
 H        -1.238795        -1.761702         2.244097
 H        -2.396031        -2.325551         0.999354
 H         0.136997        -1.992294         0.085356
 H        -1.206962        -1.426465        -0.823057
 H        -0.358852         2.236728        -0.121092
 H        -1.579562         1.162191        -1.047813
 H        -2.676808         2.025818         0.929757
