19
Iteration:  4210charge 0 multiplicity 1
 C        -4.035961        -0.390884         2.144673
 C        -2.438368        -0.155057         1.632676
 C        -1.762731        -1.365352         0.962385
 C        -0.306525        -1.121856         0.550250
 C         0.063756         0.213035        -0.022271
 O         1.249764         0.308953        -0.275502
 C        -0.965138         1.360064        -0.010926
 C        -2.033053         1.207402         1.140043
 O        -1.632193         0.554000         2.510317
 H        -4.371568        -1.374652         2.325995
 H        -4.150124         0.099963         3.186126
 H        -4.814593         0.027410         1.442779
 H        -1.825058        -2.265242         1.731311
 H        -2.308660        -1.682443         0.090395
 H         0.370781        -1.230808         1.432478
 H        -0.215970        -1.813393        -0.286185
 H        -0.528653         2.352798         0.023514
 H        -1.377417         1.369909        -1.023463
 H        -2.759390         2.022608         1.344302
