19
Iteration:  3986
 C        -3.753288        -0.405917         1.275785
 C        -2.299357        -0.220209         1.638849
 C        -1.500580        -1.446929         1.417617
 C        -0.047178        -1.093841         0.890573
 C         0.031595         0.200862         0.018158
 O         0.265575         0.181660        -1.152640
 C        -0.391696         1.477233         0.782891
 C        -1.836878         1.128805         1.284494
 O        -2.146258         0.789059         2.654032
 H        -4.201824        -1.474103         1.386574
 H        -4.520059         0.197741         1.912900
 H        -4.012042        -0.169451         0.227965
 H        -1.559793        -2.155530         2.293627
 H        -2.210612        -2.025348         0.683167
 H         0.596665        -0.934022         1.738119
 H         0.423097        -1.928576         0.259965
 H         0.190257         1.636017         1.694219
 H        -0.294187         2.288525         0.047423
 H        -2.636453         1.639453         0.803226
