19
Iteration:   219
 C        -3.966980        -0.151665         1.923224
 C        -2.520158        -0.015765         1.552841
 C        -1.903862        -1.333528         0.955413
 C        -0.414011        -1.396098         0.753104
 C         0.130510        -0.059990         0.087525
 O         1.184181         0.077215        -0.448486
 C        -0.663888         1.212051         0.323459
 C        -1.925673         1.320118         1.120854
 O        -1.760480         0.910994         2.453558
 H        -4.152803        -0.894208         2.782132
 H        -4.304110         0.765670         2.278501
 H        -4.704950        -0.580371         1.132655
 H        -2.329173        -2.230753         1.428978
 H        -2.355250        -1.360094        -0.036519
 H         0.056041        -1.387444         1.761214
 H         0.044879        -2.207081         0.150393
 H         0.059831         2.081229         0.400328
 H        -1.086488         1.298363        -0.715269
 H        -2.680795         2.084888         0.923354
