19
Iteration:  2039charge 0 multiplicity 1
 C        -3.695501        -0.170476         2.379260
 C        -2.491731        -0.059725         1.486833
 C        -1.930060        -1.325036         0.712803
 C        -0.457655        -1.367806         0.391713
 C        -0.026769        -0.005260         0.113267
 O         1.087363         0.378340         0.476167
 C        -1.013148         1.087707        -0.208063
 C        -1.955621         1.248807         1.017428
 O        -1.413518         0.775771         2.191733
 H        -3.432293        -0.727805         3.275155
 H        -4.012031         0.721255         2.747594
 H        -4.584540        -0.698697         1.964767
 H        -2.340943        -2.243809         1.175233
 H        -2.577182        -1.380783        -0.193860
 H         0.125412        -1.730561         1.235844
 H        -0.307796        -2.083822        -0.405842
 H        -0.375284         1.976884        -0.522962
 H        -1.699238         0.965992        -0.963421
 H        -2.568176         2.127068         1.081044
