19
Iteration:  1677charge 0 multiplicity 1
 C        -3.731397        -0.372296         1.020976
 C        -2.359940        -0.040790         1.480077
 C        -1.525102        -1.278031         1.820319
 C        -0.215718        -1.501271         0.904020
 C         0.052355        -0.010254         0.119799
 O         0.063005         0.181654        -1.098928
 C        -0.179771         1.217387         1.001125
 C        -1.624510         1.227446         1.114545
 O        -2.173282         1.109489         2.415930
 H        -4.132737        -1.203913         1.549248
 H        -4.447722         0.553108         1.187492
 H        -3.799844        -0.683268         0.012870
 H        -1.294857        -1.274638         2.872952
 H        -2.034772        -2.137119         1.634076
 H         0.616839        -1.474135         1.676185
 H        -0.247548        -2.311406         0.155521
 H         0.204655         1.246579         2.101929
 H         0.261157         2.212015         0.582616
 H        -2.247378         1.801640         0.384045
