19
Iteration:  3292
 C        -3.809170        -0.505660         1.189968
 C        -2.378577        -0.115108         1.683198
 C        -1.333753        -1.237893         1.753826
 C        -0.301366        -1.285010         0.589172
 C         0.006058         0.088889        -0.045219
 O         0.632004         0.152651        -1.090593
 C        -0.420754         1.356874         0.863160
 C        -1.841192         1.199103         1.227920
 O        -2.302517         0.980763         2.628357
 H        -4.093706        -1.519663         1.387497
 H        -4.727696         0.104396         1.605568
 H        -3.823701        -0.481772         0.100978
 H        -0.835591        -1.182473         2.719195
 H        -1.861171        -2.276133         1.771765
 H         0.519280        -1.898765         0.918149
 H        -0.750334        -1.765816        -0.262706
 H         0.228367         1.326349         1.719366
 H        -0.183799         2.185054         0.254193
 H        -2.679851         1.655073         0.808063
