19
Iteration:   206charge 0 multiplicity 1
 C        -3.930753        -0.169788         2.047342
 C        -2.509041        -0.008669         1.554430
 C        -1.956257        -1.301333         0.952875
 C        -0.438563        -1.328176         0.604243
 C         0.175292        -0.015355         0.185454
 O         1.314197         0.006962        -0.357415
 C        -0.721372         1.231385         0.183816
 C        -2.010371         1.247266         1.058295
 O        -1.800271         0.917606         2.494919
 H        -3.896087        -0.762795         2.935826
 H        -4.396807         0.791260         2.242642
 H        -4.503408        -0.619709         1.202547
 H        -2.223068        -2.207360         1.584768
 H        -2.549287        -1.368285        -0.022581
 H         0.150515        -1.685019         1.415327
 H        -0.349330        -2.134066        -0.199420
 H        -0.083236         2.076962         0.461088
 H        -0.870975         1.391407        -0.938368
 H        -2.649932         2.142253         0.870474
