19
Iteration:  4367
 C        -3.827949        -0.404810         2.232660
 C        -2.406819        -0.167527         1.667730
 C        -1.861463        -1.393966         0.981189
 C        -0.532328        -1.254068         0.209877
 C         0.030520         0.187027         0.112578
 O         1.237634         0.409260         0.173613
 C        -1.004725         1.274236        -0.178741
 C        -1.935050         1.114122         1.063020
 O        -1.538884         0.798530         2.397609
 H        -3.682112        -0.131812         3.343834
 H        -4.410342         0.326453         1.747579
 H        -4.226228        -1.387527         2.030055
 H        -1.887516        -2.287819         1.728476
 H        -2.736931        -1.626455         0.378311
 H         0.114841        -2.064543         0.408546
 H        -0.730141        -1.404265        -0.905564
 H        -0.498403         2.208156        -0.173991
 H        -1.704530         1.165126        -1.007317
 H        -2.795363         1.910244         1.053715
