19
Iteration:   984
 C        -3.820782        -0.341298         1.176413
 C        -2.389062        -0.091665         1.540594
 C        -1.518993        -1.304394         1.251214
 C        -0.095475        -1.119151         0.985788
 C         0.020807         0.101760         0.126287
 O         0.155822        -0.022406        -1.080144
 C        -0.272510         1.423549         0.805279
 C        -1.748623         1.204355         1.347961
 O        -2.048619         0.771999         2.652844
 H        -4.306735        -0.986954         1.897981
 H        -4.450312         0.624085         1.171260
 H        -3.926121        -0.944190         0.302988
 H        -1.901092        -2.103633         2.017016
 H        -2.046088        -1.722951         0.322642
 H         0.551780        -0.993952         1.858316
 H         0.417188        -1.966061         0.372729
 H         0.399132         1.641671         1.717499
 H        -0.085850         2.203248         0.167076
 H        -2.359776         2.055190         0.979452
