19
Iteration:   957charge 0 multiplicity 1
 C        -3.940162        -0.250184         1.490263
 C        -2.443954        -0.112610         1.554375
 C        -1.577978        -1.374617         1.096095
 C        -0.016577        -1.283524         0.966019
 C         0.128904         0.054905         0.134855
 O         0.453667         0.111686        -1.057026
 C        -0.450062         1.362923         0.780103
 C        -1.904613         1.260243         1.223648
 O        -1.983990         0.801941         2.579850
 H        -4.263946        -0.947462         2.321076
 H        -4.474825         0.648181         1.483066
 H        -4.273063        -0.815433         0.548080
 H        -1.906401        -2.056922         1.823245
 H        -2.043063        -1.744461         0.192533
 H         0.299336        -1.074328         2.015133
 H         0.520321        -2.063999         0.537049
 H         0.068880         1.606937         1.654038
 H        -0.257894         2.182369        -0.043387
 H        -2.605127         2.041933         0.926965
