19
Iteration:  3785charge 0 multiplicity 1
 C        -3.907354        -0.335349         1.874458
 C        -2.385814        -0.232762         1.594698
 C        -1.744228        -1.450624         1.019548
 C        -0.240874        -1.160551         0.702170
 C         0.090145         0.304686         0.153114
 O         1.075231         0.334989        -0.607568
 C        -0.898822         1.368748         0.209151
 C        -2.043437         1.152120         1.220609
 O        -1.747824         0.611068         2.591479
 H        -4.151675        -1.410962         2.121127
 H        -4.300771         0.204197         2.706459
 H        -4.595958        -0.083197         0.968820
 H        -1.894304        -2.166344         1.807300
 H        -2.460773        -1.578447         0.093409
 H         0.257902        -1.249170         1.684609
 H         0.262816        -1.787617         0.003391
 H        -0.431097         2.345514         0.179606
 H        -1.328703         1.223500        -0.829728
 H        -2.874664         1.894037         1.023544
