19
Iteration:  3917
 C        -3.930172        -0.473772         1.422419
 C        -2.438200        -0.190917         1.550582
 C        -1.519451        -1.428200         1.278887
 C        -0.017416        -0.970968         0.913449
 C         0.075316         0.208463         0.014824
 O         0.442818         0.109452        -1.177342
 C        -0.411389         1.471558         0.695471
 C        -1.818468         1.194679         1.363550
 O        -2.148106         0.663131         2.711901
 H        -4.235088        -0.956589         2.344414
 H        -4.372157         0.587655         1.494772
 H        -4.273739        -0.966950         0.446301
 H        -1.455805        -2.111288         2.095370
 H        -1.980902        -2.049751         0.429938
 H         0.531040        -0.730120         1.849216
 H         0.535651        -1.737958         0.365036
 H         0.391409         1.713805         1.380979
 H        -0.512807         2.449906         0.075207
 H        -2.509888         1.985339         0.863864
