19
Iteration:  2347
 C        -4.003586        -0.375640         1.369985
 C        -2.491491        -0.030484         1.459233
 C        -1.607352        -1.368628         1.323223
 C        -0.104172        -1.131166         0.952753
 C         0.094772         0.065059         0.069489
 O         0.540338        -0.056772        -1.073555
 C        -0.410563         1.480047         0.687835
 C        -1.767900         1.319380         1.312896
 O        -2.032624         0.726361         2.621932
 H        -4.204835        -1.180643         2.074269
 H        -4.553004         0.614104         1.613755
 H        -4.242773        -0.775113         0.402981
 H        -1.576391        -1.715183         2.402871
 H        -2.106312        -2.121139         0.653421
 H         0.523130        -0.893683         1.887392
 H         0.263084        -2.027024         0.438665
 H         0.294028         1.815200         1.384195
 H        -0.416340         2.186303        -0.098956
 H        -2.497130         2.155801         1.127056
