19
Iteration:  2476charge 0 multiplicity 1
 C        -3.790158        -0.323308         1.420637
 C        -2.383543        -0.093199         1.704278
 C        -1.424687        -1.340356         1.552722
 C        -0.341855        -1.309752         0.543960
 C         0.050925         0.025731        -0.043508
 O         0.813119         0.134691        -0.958470
 C        -0.530078         1.258841         0.766357
 C        -1.986849         1.180179         1.167205
 O        -2.240463         0.998805         2.586681
 H        -4.355659        -0.564213         2.304621
 H        -4.185459         0.730371         1.177906
 H        -3.946996        -0.907427         0.556686
 H        -0.994188        -1.617668         2.524752
 H        -2.082643        -2.160183         1.327492
 H         0.641722        -1.543179         0.936435
 H        -0.343912        -2.117453        -0.191495
 H        -0.004692         1.476983         1.808081
 H        -0.227543         2.190183         0.133126
 H        -2.666336         1.885590         0.800616
