19
Iteration:  4365charge 0 multiplicity 1
 C        -3.817048        -0.405449         2.241832
 C        -2.392853        -0.183303         1.657413
 C        -1.864468        -1.389656         0.961334
 C        -0.532154        -1.264442         0.218452
 C         0.033862         0.186630         0.086432
 O         1.231912         0.395228         0.188185
 C        -1.015985         1.294180        -0.178794
 C        -1.932016         1.146991         1.060600
 O        -1.549760         0.798898         2.401390
 H        -3.613628        -0.149841         3.350374
 H        -4.444712         0.381566         1.724533
 H        -4.200868        -1.426610         2.063972
 H        -1.898634        -2.274104         1.730918
 H        -2.706561        -1.659122         0.372117
 H         0.119443        -2.079444         0.525479
 H        -0.685872        -1.408628        -0.894166
 H        -0.494855         2.181308        -0.179480
 H        -1.712433         1.120701        -1.008837
 H        -2.859532         1.881888         1.116487
