19
Iteration:   560
 C        -3.920933        -0.299040         1.556132
 C        -2.384935        -0.098267         1.611189
 C        -1.465005        -1.272606         1.653557
 C        -0.613716        -1.315534         0.328758
 C         0.081672         0.002452        -0.063822
 O         1.091221         0.034716        -0.751530
 C        -0.439101         1.368697         0.617473
 C        -1.954792         1.191762         1.187645
 O        -2.200826         0.954047         2.582680
 H        -4.195267        -0.406465         2.633203
 H        -4.496721         0.542712         1.023851
 H        -4.311847        -1.147571         0.959308
 H        -0.765697        -1.111578         2.515303
 H        -2.092092        -2.256459         1.811931
 H         0.197921        -2.024835         0.474884
 H        -1.168475        -1.714359        -0.483645
 H         0.238766         1.616389         1.413528
 H        -0.437705         2.220089        -0.144844
 H        -2.715751         1.815605         0.583474
