19
Iteration:     3charge 0 multiplicity 1
 C        -3.910199        -0.095980         2.017403
 C        -2.473993        -0.022680         1.566986
 C        -1.768664        -1.364143         1.295411
 C        -0.744217        -1.293321         0.136370
 C         0.095583        -0.015540         0.130251
 O         1.287902        -0.008608         0.158177
 C        -0.761162         1.247328         0.049825
 C        -1.950325         1.216276         0.972925
 O        -1.669404         0.922512         2.316199
 H        -3.979356        -0.833743         2.857720
 H        -4.239851         0.844356         2.283311
 H        -4.484010        -0.539379         1.246619
 H        -1.255076        -1.670110         2.277785
 H        -2.522146        -2.193950         1.060578
 H        -0.075263        -2.251305         0.116874
 H        -1.238074        -1.292473        -0.820029
 H        -0.078516         2.119251         0.317811
 H        -1.128754         1.347471        -0.979521
 H        -2.577772         2.065875         0.816271
