19
Iteration:  4281charge 0 multiplicity 1
 C        -3.801890        -0.233196         2.404105
 C        -2.558275        -0.184624         1.516058
 C        -1.906185        -1.363228         0.722101
 C        -0.438677        -1.150316         0.464715
 C         0.089260         0.178371         0.037674
 O         1.254725         0.474078         0.151758
 C        -1.117762         1.181656        -0.124496
 C        -2.049660         1.134679         1.120200
 O        -1.428761         0.531163         2.307080
 H        -3.637791        -0.653670         3.425423
 H        -4.174991         0.706674         2.576330
 H        -4.609549        -0.794571         2.008156
 H        -1.939288        -2.322567         1.154092
 H        -2.314955        -1.538456        -0.314442
 H         0.037932        -1.350868         1.398085
 H        -0.055171        -1.761602        -0.369116
 H        -0.562417         2.104251        -0.412460
 H        -1.778565         0.996570        -1.015416
 H        -2.617322         2.054464         1.316741
