19
Iteration:  2014charge 0 multiplicity 1
 C        -3.666851        -0.239543         2.345639
 C        -2.463636        -0.016984         1.559814
 C        -1.975965        -1.343804         0.861050
 C        -0.539176        -1.375794         0.274901
 C         0.055963         0.036807         0.148999
 O         1.177140         0.369281         0.484096
 C        -0.947596         1.129341        -0.296893
 C        -1.967720         1.234486         0.909307
 O        -1.547965         0.793655         2.241951
 H        -3.485665        -1.129796         2.880588
 H        -3.709753         0.464007         3.171638
 H        -4.617822        -0.318108         1.952859
 H        -2.151840        -2.141375         1.594509
 H        -2.871745        -1.636853         0.279814
 H         0.077271        -1.877842         1.031277
 H        -0.445830        -1.956767        -0.699360
 H        -0.504692         2.037495        -0.491175
 H        -1.661573         0.992734        -1.165485
 H        -2.471911         2.157927         0.993385
