19
Iteration:  1475
 C        -3.958886        -0.395788         1.542496
 C        -2.445174        -0.115544         1.659764
 C        -1.489061        -1.244476         1.637681
 C        -0.666621        -1.347375         0.295846
 C         0.090483        -0.008890         0.016468
 O         1.136880        -0.010021        -0.621302
 C        -0.553975         1.379333         0.487899
 C        -1.894204         1.257482         1.189554
 O        -2.061043         1.074385         2.559237
 H        -4.420013        -0.996656         2.404624
 H        -4.529107         0.431438         1.290706
 H        -4.101001        -1.020180         0.590679
 H        -0.699723        -1.195526         2.358731
 H        -1.939777        -2.220179         1.906663
 H         0.039299        -2.244877         0.340158
 H        -1.310205        -1.601093        -0.576648
 H         0.129823         1.954634         1.234847
 H        -0.633184         1.957052        -0.408684
 H        -2.597557         1.897082         0.680440
