19
Iteration:  1680
 C        -3.743598        -0.382842         1.031777
 C        -2.346806        -0.031636         1.476539
 C        -1.532669        -1.286970         1.815095
 C        -0.228215        -1.497224         0.916118
 C         0.050851        -0.013529         0.122442
 O         0.075455         0.197642        -1.081920
 C        -0.172265         1.230982         1.001992
 C        -1.631221         1.239153         1.075749
 O        -2.169136         1.096431         2.418707
 H        -4.061950        -1.175235         1.698538
 H        -4.356639         0.430130         1.166882
 H        -3.819534        -0.667251        -0.031879
 H        -1.239490        -1.363040         2.873497
 H        -2.192861        -2.210386         1.716370
 H         0.540774        -1.505080         1.612951
 H        -0.267325        -2.266123         0.121805
 H         0.189814         1.301746         2.029766
 H         0.251823         2.068464         0.491591
 H        -2.193839         1.881536         0.415369
