19
Iteration:  4176
 C        -3.977550        -0.396913         2.048179
 C        -2.504467        -0.189470         1.507224
 C        -1.824436        -1.428106         1.037714
 C        -0.334945        -1.242499         0.633268
 C         0.120257         0.189128         0.094646
 O         1.133185         0.442943        -0.608609
 C        -0.794597         1.347187         0.374969
 C        -2.043322         1.195737         1.120754
 O        -1.683800         0.671121         2.464709
 H        -4.134695        -1.417043         2.346044
 H        -4.059717         0.287972         2.946201
 H        -4.806728         0.004922         1.367897
 H        -1.754130        -2.252210         1.842133
 H        -2.333570        -1.888370         0.204838
 H         0.318163        -1.415762         1.546036
 H         0.091234        -2.088432         0.100710
 H        -0.152012         2.227735         0.588384
 H        -1.104039         1.343561        -0.666329
 H        -2.793005         1.962421         0.998939
