19
Iteration:  2386charge 0 multiplicity 1
 C        -3.819558        -0.210780         1.354961
 C        -2.387685        -0.129536         1.656824
 C        -1.547031        -1.399210         1.528370
 C        -0.132412        -1.249539         0.865863
 C        -0.011399         0.037659        -0.038574
 O         0.623424         0.140681        -1.101815
 C        -0.444180         1.277199         0.730168
 C        -1.926942         1.167710         1.127875
 O        -2.147816         0.920595         2.607370
 H        -4.166128        -1.280636         1.415934
 H        -4.474344         0.295329         1.937924
 H        -4.027990         0.087902         0.286902
 H        -1.436050        -1.805750         2.501715
 H        -2.071607        -2.192576         1.035844
 H         0.531217        -1.022005         1.656210
 H         0.168709        -2.163703         0.347400
 H         0.044054         1.246687         1.832775
 H        -0.263977         2.325859         0.238969
 H        -2.562052         1.891864         0.715036
