19
Iteration:  3443
 C        -3.883825        -0.513605         1.669021
 C        -2.457646        -0.184608         1.650119
 C        -1.397166        -1.331508         1.527533
 C        -0.471935        -1.220743         0.344024
 C         0.114815         0.145150         0.029577
 O         1.087064         0.158143        -0.669921
 C        -0.708927         1.463162         0.438872
 C        -2.056693         1.133031         1.176947
 O        -2.061593         0.890418         2.607818
 H        -4.290901        -1.069121         2.463914
 H        -4.476159         0.462812         1.494391
 H        -4.128515        -1.047227         0.773487
 H        -0.873657        -1.338208         2.465288
 H        -1.986613        -2.250166         1.401483
 H         0.379236        -1.913033         0.278784
 H        -0.875849        -1.248478        -0.727845
 H        -0.007733         2.100557         1.110694
 H        -0.868214         2.055698        -0.453562
 H        -2.801606         1.863254         0.939399
