19
Iteration:  2172
 C        -4.017559        -0.293461         1.917821
 C        -2.555651        -0.068920         1.510595
 C        -1.815234        -1.350585         1.222182
 C        -0.410351        -1.200865         0.567506
 C         0.097438         0.062281         0.048900
 O         1.246532         0.179894        -0.352961
 C        -0.751552         1.336920         0.149033
 C        -1.949065         1.230109         1.113331
 O        -1.765153         0.699437         2.438161
 H        -4.008551        -1.315204         2.267971
 H        -4.214328         0.282274         2.822348
 H        -4.700327         0.034033         1.154384
 H        -1.668702        -1.761525         2.270375
 H        -2.476239        -2.146864         0.782337
 H         0.393942        -1.531882         1.270128
 H        -0.435314        -1.884106        -0.277210
 H         0.033726         2.138673         0.577567
 H        -1.054321         1.634612        -0.856861
 H        -2.594893         2.175964         1.051746
