19
Iteration:  2435
 C        -3.979935        -0.505322         1.426809
 C        -2.515469        -0.083338         1.524828
 C        -1.636742        -1.212140         1.654874
 C        -0.309897        -1.213559         0.730487
 C         0.253813         0.051262         0.066347
 O         0.649319         0.133507        -1.081003
 C        -0.337592         1.368814         0.785422
 C        -1.811116         1.285475         1.132981
 O        -2.047532         0.805886         2.503428
 H        -4.146222        -1.536108         1.745824
 H        -4.781793         0.169523         2.035168
 H        -4.377061        -0.494515         0.421691
 H        -1.340734        -1.293055         2.754464
 H        -2.096469        -2.234951         1.458377
 H         0.444685        -1.646495         1.528424
 H        -0.518240        -1.899767        -0.128089
 H         0.153892         1.698801         1.626753
 H        -0.306741         2.111385         0.033861
 H        -2.485290         2.087163         0.664715
