19
Iteration:  4232
 C        -3.856291        -0.395962         2.060081
 C        -2.476008        -0.182086         1.689416
 C        -1.984391        -1.359624         0.896506
 C        -0.388807        -1.159561         0.540398
 C         0.049973         0.225766         0.101941
 O         1.247855         0.419762        -0.174133
 C        -1.093090         1.217849         0.039692
 C        -1.997569         1.109168         1.191901
 O        -1.398286         0.704170         2.368677
 H        -4.150076        -1.389647         2.255712
 H        -4.236605         0.132062         3.020473
 H        -4.514776        -0.049077         1.209601
 H        -2.008643        -2.412388         1.423554
 H        -2.488298        -1.523578        -0.019140
 H         0.057390        -1.382495         1.534581
 H        -0.162476        -1.833226        -0.301746
 H        -0.680443         2.205655        -0.063398
 H        -1.589445         1.118678        -0.920580
 H        -2.694430         1.974704         1.300487
