19
Iteration:   133
 C        -3.795238         0.053649         2.127300
 C        -2.407392        -0.048109         1.555968
 C        -1.873077        -1.483591         1.106575
 C        -0.695120        -1.281835         0.021136
 C        -0.014236         0.003929         0.143854
 O         1.161933         0.194927         0.542597
 C        -0.933467         1.160882        -0.138564
 C        -1.982225         1.214997         0.965169
 O        -1.408631         0.742027         2.270056
 H        -3.665898        -0.418627         3.165965
 H        -4.012916         1.055880         2.294668
 H        -4.530828        -0.341145         1.384018
 H        -1.496055        -2.026782         1.952926
 H        -2.613387        -2.074918         0.646053
 H         0.079552        -2.092750         0.252417
 H        -1.031703        -1.387358        -0.953400
 H        -0.301356         2.076646        -0.316182
 H        -1.357915         0.949959        -1.072893
 H        -2.550526         2.109036         1.074484
