19
Iteration:  1085charge 0 multiplicity 1
 C        -3.824588        -0.369704         1.168349
 C        -2.410346        -0.040514         1.414478
 C        -1.539979        -1.267643         1.251784
 C        -0.013138        -1.075590         1.120921
 C         0.066747         0.076322         0.133716
 O         0.010276        -0.010188        -1.063564
 C        -0.254196         1.344858         0.854948
 C        -1.736649         1.272558         1.279116
 O        -2.005946         0.708900         2.596735
 H        -3.989516        -1.358971         1.690533
 H        -4.556677         0.233963         1.608629
 H        -3.978193        -0.483087         0.076420
 H        -1.795801        -2.068124         2.031103
 H        -1.951138        -1.570232         0.273585
 H         0.324699        -0.768156         2.145938
 H         0.391150        -2.025185         0.846885
 H         0.413351         1.431821         1.706514
 H        -0.051933         2.214258         0.155136
 H        -2.221292         2.207890         1.021528
