19
Iteration:  2116
 C        -3.813963        -0.157354         2.135658
 C        -2.434035        -0.077764         1.523185
 C        -1.892215        -1.364333         0.886246
 C        -0.417901        -1.342006         0.450248
 C         0.054127         0.024178         0.021588
 O         1.262448         0.309844         0.076662
 C        -0.988612         1.220968        -0.037346
 C        -1.973619         1.218243         1.090346
 O        -1.675737         0.728223         2.431710
 H        -3.702648        -0.619378         3.107142
 H        -4.123789         0.791501         2.312527
 H        -4.661403        -0.735756         1.743053
 H        -2.060687        -2.118799         1.684603
 H        -2.554840        -1.386294         0.011319
 H         0.313964        -1.731973         1.179676
 H        -0.319988        -2.136181        -0.285456
 H        -0.294363         2.172689        -0.028646
 H        -1.500420         1.149401        -0.958805
 H        -2.727251         2.027416         1.054991
