19
Iteration:  1645
 C        -3.695824        -0.225354         0.868489
 C        -2.350457         0.019508         1.548873
 C        -1.333900        -1.239401         1.852709
 C        -0.165852        -1.257766         0.778538
 C        -0.037676        -0.029085         0.063729
 O         0.027366        -0.097753        -1.128819
 C        -0.150884         1.171765         1.038664
 C        -1.631503         1.276567         1.241255
 O        -2.379273         0.978986         2.525666
 H        -4.264164        -0.899980         1.382669
 H        -4.313363         0.748951         1.012150
 H        -3.700135        -0.518024        -0.126783
 H        -1.002670        -1.060572         2.868719
 H        -1.721566        -2.183862         1.685519
 H         0.771663        -1.292119         1.384643
 H         0.070218        -2.192383         0.227441
 H         0.200670         0.849393         2.103810
 H         0.259308         2.149160         0.584661
 H        -2.184239         1.986210         0.584178
