19
Iteration:   437charge 0 multiplicity 1
 C        -3.776673        -0.445755         0.966346
 C        -2.393238        -0.001519         1.510371
 C        -1.458828        -1.206316         1.838671
 C        -0.372827        -1.367402         0.728939
 C        -0.045331        -0.046946         0.123945
 O         0.262230         0.096653        -1.071446
 C        -0.149274         1.245551         0.932795
 C        -1.698595         1.348997         1.217787
 O        -2.157488         0.981315         2.563376
 H        -4.349923        -1.181651         1.607614
 H        -4.473449         0.218444         0.722514
 H        -3.463520        -0.786359        -0.105917
 H        -0.980722        -1.057846         2.882151
 H        -2.136029        -2.150337         1.835450
 H         0.595910        -1.685554         1.229775
 H        -0.596698        -2.065869         0.002998
 H         0.514055         1.195187         1.770081
 H         0.173722         1.989802         0.277464
 H        -2.116476         2.247695         0.850292
