19
Iteration:  4382
 C        -3.893585        -0.300704         2.203140
 C        -2.442753        -0.159108         1.709199
 C        -1.830069        -1.419805         1.096556
 C        -0.589356        -1.190704         0.120296
 C         0.090887         0.151437         0.132957
 O         1.256272         0.483052         0.101375
 C        -0.980776         1.141903        -0.005691
 C        -2.041109         1.127333         0.994447
 O        -1.467786         0.738214         2.347856
 H        -4.062186        -0.308905         3.233623
 H        -4.633622         0.340174         1.696976
 H        -4.095458        -1.356166         1.942013
 H        -1.645207        -2.170897         1.796532
 H        -2.571436        -1.877813         0.336063
 H         0.281162        -1.884587         0.340536
 H        -1.002633        -1.230098        -0.875630
 H        -0.534368         2.231555         0.048067
 H        -1.244950         0.865412        -1.065385
 H        -2.697558         1.940519         1.149789
