19
Iteration:  3009charge 0 multiplicity 1
 C        -4.059095        -0.309214         1.897252
 C        -2.485363        -0.142269         1.566269
 C        -1.756787        -1.424574         1.275945
 C        -0.407989        -1.285774         0.489150
 C         0.085454         0.172870         0.113843
 O         1.245392         0.272377        -0.325511
 C        -0.772374         1.396290         0.111766
 C        -1.959369         1.180942         1.078855
 O        -1.774056         0.721977         2.477888
 H        -4.118127        -1.241736         2.374980
 H        -4.209844         0.407291         2.798516
 H        -4.630961        -0.203864         0.970892
 H        -1.492283        -1.858059         2.234396
 H        -2.372000        -2.142961         0.761247
 H         0.461631        -1.830033         0.822150
 H        -0.684746        -1.697999        -0.531347
 H        -0.138275         2.284764         0.289610
 H        -1.275493         1.592540        -0.833461
 H        -2.658987         2.006035         1.065261
