19
Iteration:  2040
 C        -3.694565        -0.167703         2.370685
 C        -2.484119        -0.061667         1.498719
 C        -1.934029        -1.325863         0.707914
 C        -0.463751        -1.364805         0.393469
 C        -0.026446        -0.007807         0.124189
 O         1.091484         0.378772         0.473173
 C        -1.019377         1.091198        -0.208649
 C        -1.961839         1.241335         1.019083
 O        -1.406979         0.769310         2.184720
 H        -3.425774        -0.727355         3.296934
 H        -4.035965         0.773344         2.735363
 H        -4.591999        -0.733196         1.956486
 H        -2.330858        -2.246473         1.189825
 H        -2.583760        -1.330557        -0.201858
 H         0.132292        -1.734924         1.235625
 H        -0.271722        -2.080975        -0.380328
 H        -0.376135         2.013789        -0.519704
 H        -1.712628         0.950449        -0.965081
 H        -2.582207         2.179308         1.060116
