19
Iteration:  2081
 C        -3.874764        -0.140977         2.317379
 C        -2.525161        -0.114029         1.542153
 C        -2.084097        -1.344544         0.826951
 C        -0.547699        -1.177301         0.531840
 C         0.061532         0.174018         0.250988
 O         1.262884         0.402532         0.242040
 C        -0.982698         1.119141        -0.162649
 C        -1.906717         1.150747         0.975110
 O        -1.353867         0.540921         2.135933
 H        -3.586749        -0.307844         3.324017
 H        -4.331222         0.772162         2.304173
 H        -4.554161        -0.876716         1.952052
 H        -2.194654        -2.315555         1.329813
 H        -2.657044        -1.597557        -0.071698
 H         0.008500        -1.614954         1.348522
 H        -0.330891        -1.641507        -0.469232
 H        -0.593388         2.102330        -0.387603
 H        -1.373515         0.691924        -1.124547
 H        -2.446765         1.972897         1.160394
