19
Iteration:  2757charge 0 multiplicity 1
 C        -3.854288        -0.330226         2.046088
 C        -2.456994        -0.154548         1.592440
 C        -1.706889        -1.391418         1.209873
 C        -0.513755        -1.266733         0.288918
 C         0.124896         0.129760         0.155574
 O         1.361840         0.176549        -0.176785
 C        -0.852310         1.354627         0.087998
 C        -2.043710         1.109015         1.047797
 O        -1.914211         0.940765         2.445020
 H        -3.861566        -1.032875         2.858882
 H        -4.203362         0.528668         2.479994
 H        -4.594786        -0.684262         1.291631
 H        -1.360458        -1.868365         2.162002
 H        -2.447313        -2.003735         0.665144
 H         0.262130        -1.964305         0.370252
 H        -0.804346        -1.559372        -0.719108
 H        -0.240858         2.276509         0.391273
 H        -1.307609         1.484049        -0.943124
 H        -2.809880         1.829840         0.800194
