19
Iteration:  3384
 C        -3.827609        -0.614555         1.583401
 C        -2.413874        -0.189101         1.624352
 C        -1.270244        -1.198182         1.682295
 C        -0.581185        -1.177061         0.228498
 C         0.041084         0.119778        -0.055635
 O         0.935107         0.190179        -0.856937
 C        -0.452442         1.258221         0.892422
 C        -1.974704         1.193614         1.078595
 O        -2.280573         1.005779         2.531190
 H        -4.386575        -0.379555         2.539782
 H        -4.319518        -0.069945         0.862100
 H        -3.818381        -1.717503         1.392955
 H        -0.402111        -1.358264         2.387750
 H        -1.792887        -2.150340         1.823623
 H         0.180402        -1.981067         0.282759
 H        -1.210266        -1.380184        -0.593132
 H        -0.078644         1.257504         2.002346
 H        -0.177440         2.241053         0.373205
 H        -2.593296         1.984430         0.502134
