19
Iteration:  4586charge 0 multiplicity 1
 C        -3.967344        -0.534519         1.802403
 C        -2.440514        -0.146347         1.650211
 C        -1.367865        -1.149569         1.527359
 C        -0.614842        -1.193507         0.243202
 C         0.157201         0.099442         0.028579
 O         1.173728         0.031959        -0.583504
 C        -0.713493         1.405367         0.380590
 C        -2.093093         1.215797         1.117188
 O        -2.016733         0.861765         2.546985
 H        -4.033009        -1.588799         1.378077
 H        -4.312791        -0.589168         2.842680
 H        -4.446881         0.073864         0.983914
 H        -0.639638        -0.811137         2.305356
 H        -1.656011        -2.143837         1.824642
 H         0.114845        -2.010095         0.331818
 H        -1.041551        -1.451281        -0.716810
 H        -0.219683         2.047711         1.134768
 H        -0.800625         2.164190        -0.451807
 H        -2.854484         1.930263         0.738751
