19
Iteration:  2673
 C        -3.931816        -0.316638         1.568533
 C        -2.422795        -0.239352         1.583706
 C        -1.528436        -1.428760         1.535194
 C        -0.517701        -1.232036         0.486402
 C         0.102680         0.156773         0.119813
 O         1.030099         0.146952        -0.614849
 C        -0.657763         1.450435         0.402264
 C        -2.002686         1.111519         1.118326
 O        -1.884567         0.873572         2.535135
 H        -4.387262        -0.694053         2.499282
 H        -4.353036         0.811363         1.497964
 H        -4.436855        -0.843622         0.735600
 H        -1.049249        -1.529802         2.515734
 H        -2.165979        -2.268889         1.502121
 H         0.408330        -1.748619         0.718845
 H        -1.011042        -1.586831        -0.465309
 H        -0.061142         2.048125         0.999536
 H        -0.783400         2.010623        -0.561821
 H        -2.838610         1.731008         0.844038
