19
Iteration:  2785
 C        -3.935904        -0.352872         2.046515
 C        -2.444022        -0.120498         1.572523
 C        -1.677044        -1.391826         1.320762
 C        -0.633550        -1.282545         0.230693
 C         0.045328         0.130983         0.194250
 O         1.224021         0.301209         0.101576
 C        -0.915746         1.352127         0.014413
 C        -2.085580         1.194030         0.953873
 O        -1.528743         0.744265         2.209976
 H        -3.959194        -1.240514         2.802192
 H        -4.249825         0.609719         2.591555
 H        -4.566881        -0.483135         1.135924
 H        -1.239353        -1.616623         2.287869
 H        -2.339379        -2.241135         1.010461
 H         0.307404        -1.996469         0.276009
 H        -1.026078        -1.641573        -0.759455
 H        -0.235137         2.176915         0.373837
 H        -1.200319         1.489929        -1.007155
 H        -2.697507         2.148935         1.098199
