19
Iteration:  2751charge 0 multiplicity 1
 C        -3.873982        -0.387817         2.040777
 C        -2.499661        -0.138006         1.632832
 C        -1.691456        -1.411660         1.236622
 C        -0.504984        -1.290800         0.269847
 C         0.220983         0.095197         0.112960
 O         1.364109         0.205174        -0.233695
 C        -0.816042         1.331106         0.119457
 C        -2.031493         1.175001         1.026158
 O        -1.970662         0.964835         2.491657
 H        -4.065511        -1.014370         2.973695
 H        -4.256612         0.698650         2.364360
 H        -4.633774        -0.745216         1.360285
 H        -1.421397        -2.103747         2.040662
 H        -2.531281        -1.864032         0.680112
 H         0.346414        -2.034550         0.545595
 H        -0.876084        -1.511954        -0.774151
 H        -0.266059         2.224157         0.368990
 H        -1.280672         1.514978        -0.856573
 H        -2.791099         1.928772         0.698467
