19
Iteration:   120charge 0 multiplicity 1
 C        -3.805458         0.036038         2.207316
 C        -2.380101        -0.100462         1.622411
 C        -1.834217        -1.433693         1.029249
 C        -0.709145        -1.344888        -0.033383
 C         0.029590         0.084260         0.161075
 O         1.089100         0.145817         0.659775
 C        -0.963036         1.171092        -0.263072
 C        -1.829917         1.167713         0.966847
 O        -1.410079         0.817507         2.239109
 H        -4.224172        -0.650792         3.001802
 H        -4.054631         1.098058         2.506144
 H        -4.608318        -0.283978         1.408300
 H        -1.341284        -1.859376         1.878394
 H        -2.669357        -2.041728         0.844039
 H         0.028651        -2.099688         0.075781
 H        -1.106038        -1.393212        -1.078582
 H        -0.571254         2.184408        -0.336290
 H        -1.649236         0.970118        -1.079383
 H        -2.590457         1.982564         0.923391
