19
Iteration:  1889charge 0 multiplicity 1
 C        -3.897837        -0.390440         1.835262
 C        -2.447348        -0.151736         1.645442
 C        -1.617739        -1.412806         1.443328
 C        -0.738102        -1.150400         0.200336
 C         0.078509         0.061419         0.062415
 O         1.286159         0.019700        -0.166518
 C        -0.689582         1.379477         0.184169
 C        -1.938680         1.174024         1.013897
 O        -1.852212         1.002648         2.467264
 H        -4.111121        -0.820834         2.863729
 H        -4.450770         0.486028         1.731538
 H        -4.357751        -1.147406         1.126480
 H        -1.078491        -1.481934         2.347296
 H        -2.309244        -2.191465         1.297080
 H        -0.172106        -2.052897         0.004375
 H        -1.567450        -0.898725        -0.518811
 H        -0.050910         2.274635         0.551671
 H        -0.956798         1.681934        -0.873769
 H        -2.719086         1.960491         0.833882
