19
Iteration:   522charge 0 multiplicity 1
 C        -3.879715        -0.566921         1.280035
 C        -2.478259        -0.004251         1.666770
 C        -1.410478        -1.115627         1.730551
 C        -0.688666        -1.323967         0.405308
 C         0.136471        -0.048534         0.081256
 O         0.789186         0.045395        -0.941112
 C        -0.294147         1.275621         0.861223
 C        -1.868771         1.268620         1.127616
 O        -2.126534         1.100538         2.553439
 H        -4.165768        -1.206164         2.173008
 H        -4.649525         0.186261         1.056325
 H        -3.696612        -1.468656         0.566088
 H        -0.720201        -0.928562         2.534672
 H        -1.789783        -2.046935         1.994850
 H        -0.033093        -2.225915         0.451362
 H        -1.358692        -1.463434        -0.503732
 H         0.149631         1.250978         1.877146
 H         0.148156         2.093806         0.328069
 H        -2.556971         1.949836         0.662721
