19
Iteration:  4861charge 0 multiplicity 1
 C        -3.764357        -0.510329         1.301611
 C        -2.358637        -0.076963         1.558526
 C        -1.298305        -1.284193         1.742568
 C        -0.353732        -1.343246         0.611441
 C        -0.160563         0.110556        -0.056753
 O         0.576409         0.124688        -1.022634
 C        -0.441000         1.368296         0.810539
 C        -1.856127         1.261660         1.223271
 O        -2.216464         0.929833         2.541519
 H        -3.976850        -1.346621         1.923859
 H        -4.416140         0.401321         1.627712
 H        -3.835643        -0.689271         0.234579
 H        -0.696500        -1.063086         2.607868
 H        -1.666336        -2.289280         2.102809
 H         0.704598        -1.554612         0.970774
 H        -0.670114        -2.052810        -0.162023
 H         0.296503         1.415548         1.707695
 H        -0.161426         2.182393         0.256895
 H        -2.435059         2.102015         0.895476
