19
Iteration:   496charge 0 multiplicity 1
 C        -3.703511        -0.444032         1.204805
 C        -2.329053        -0.059227         1.647311
 C        -1.333814        -1.179408         1.895988
 C        -0.652192        -1.318059         0.468544
 C        -0.069072        -0.009263         0.012066
 O         0.658714         0.102335        -0.973536
 C        -0.216793         1.160387         0.927155
 C        -1.767335         1.178134         1.172299
 O        -2.367022         1.146297         2.467210
 H        -4.034158        -1.275551         1.779962
 H        -4.356375         0.528542         1.326534
 H        -3.765304        -0.852136         0.252845
 H        -0.673036        -0.947030         2.747345
 H        -1.824363        -2.170916         2.168817
 H         0.116082        -2.070404         0.317155
 H        -1.442763        -1.563803        -0.337143
 H         0.418932         0.869282         1.849477
 H         0.274718         2.109101         0.449712
 H        -2.405207         1.747719         0.379027
