19
Iteration:  2864
 C        -3.668127        -0.347980         2.411319
 C        -2.417698        -0.109736         1.539115
 C        -1.750022        -1.358265         0.990337
 C        -0.565443        -1.362603        -0.037195
 C         0.007822         0.081813         0.157100
 O         1.044700         0.324568         0.647580
 C        -0.964353         1.191816        -0.176453
 C        -2.059559         1.216527         0.879176
 O        -1.532698         0.920330         2.156265
 H        -3.320731        -0.952864         3.294400
 H        -4.006011         0.616189         2.636035
 H        -4.282346        -0.990334         1.711199
 H        -1.536213        -2.046385         1.788508
 H        -2.590375        -1.925405         0.520500
 H         0.222834        -2.059413         0.278742
 H        -0.902089        -1.367353        -1.073587
 H        -0.310687         2.144957        -0.125094
 H        -1.462326         1.200084        -1.062153
 H        -2.839536         2.016690         0.814279
