19
Iteration:  2487charge 0 multiplicity 1
 C        -3.853487        -0.322216         1.404576
 C        -2.354694        -0.179067         1.674323
 C        -1.452348        -1.363125         1.664997
 C        -0.336247        -1.369784         0.494950
 C         0.123980         0.048625         0.038272
 O         0.829681         0.202339        -1.000251
 C        -0.532091         1.282860         0.751218
 C        -1.981130         1.194012         1.168478
 O        -2.197488         1.051259         2.607699
 H        -4.491465        -0.532459         2.243695
 H        -4.248188         0.578593         0.831069
 H        -4.122887        -1.138299         0.764910
 H        -1.101236        -1.693588         2.650376
 H        -2.102279        -2.144614         1.322670
 H         0.449181        -1.907749         0.968324
 H        -0.817942        -1.823441        -0.369055
 H         0.198850         1.471561         1.675258
 H        -0.438319         2.125156        -0.048560
 H        -2.677516         1.804444         0.654281
