19
Iteration:  3197charge 0 multiplicity 1
 C        -3.904353        -0.464401         1.267156
 C        -2.394829        -0.135705         1.587264
 C        -1.559835        -1.419239         1.392122
 C        -0.085545        -1.059625         1.055909
 C         0.035808         0.102296         0.046542
 O         0.361579         0.109377        -1.127912
 C        -0.297028         1.370907         0.789763
 C        -1.823109         1.236886         1.204172
 O        -2.067393         0.875614         2.562355
 H        -4.260442        -1.485771         1.534010
 H        -4.697101        -0.026387         1.879547
 H        -4.202661        -0.463937         0.235036
 H        -1.517842        -2.068847         2.303089
 H        -2.050767        -1.999535         0.675881
 H         0.554733        -0.622555         1.866987
 H         0.344189        -1.921866         0.599364
 H         0.230309         1.421668         1.823246
 H        -0.137295         2.207167         0.117761
 H        -2.505154         1.914105         0.663123
