19
Iteration:  3450charge 0 multiplicity 1
 C        -3.907685        -0.526839         1.626418
 C        -2.382060        -0.144674         1.640091
 C        -1.451802        -1.365450         1.526024
 C        -0.500872        -1.195632         0.350215
 C         0.064616         0.156381         0.028004
 O         1.113951         0.157101        -0.624658
 C        -0.718551         1.504121         0.392209
 C        -2.030458         1.126096         1.178363
 O        -2.031262         0.877818         2.610917
 H        -4.165732        -1.173721         2.537480
 H        -4.406629         0.343087         1.913026
 H        -4.164502        -0.985021         0.638048
 H        -0.961327        -1.543263         2.527186
 H        -1.989087        -2.295627         1.536801
 H         0.405200        -1.800697         0.291433
 H        -0.884160        -1.410951        -0.619229
 H         0.089282         2.071065         0.901168
 H        -1.055743         2.092888        -0.510805
 H        -2.925808         1.782677         0.892538
