19
Iteration:   435
 C        -3.763577        -0.438810         0.972435
 C        -2.402138        -0.021374         1.504195
 C        -1.476185        -1.224466         1.849524
 C        -0.347923        -1.367569         0.728913
 C        -0.061213        -0.035593         0.113535
 O         0.256237         0.089257        -1.067240
 C        -0.143974         1.251898         0.944675
 C        -1.686656         1.368888         1.223661
 O        -2.158619         0.974782         2.549996
 H        -4.305949        -1.149949         1.633804
 H        -4.536844         0.315762         0.719798
 H        -3.425029        -0.850449        -0.092387
 H        -1.060467        -1.110298         2.864365
 H        -2.132090        -2.097499         1.824458
 H         0.609450        -1.615929         1.216475
 H        -0.604550        -2.151786        -0.009653
 H         0.547749         1.249329         1.753198
 H         0.205662         1.995897         0.238774
 H        -2.174111         2.283694         0.853712
