19
Iteration:  2728
 C        -4.023447        -0.400714         1.982481
 C        -2.598394        -0.069109         1.659043
 C        -1.718195        -1.315112         1.250795
 C        -0.416766        -1.302924         0.308196
 C         0.249907         0.051537         0.058469
 O         1.316302         0.269089        -0.408253
 C        -0.695966         1.212164         0.317212
 C        -2.048042         1.164653         1.072981
 O        -1.908365         0.974773         2.470818
 H        -4.077366        -0.908247         2.981944
 H        -4.965427         0.342821         2.023668
 H        -4.374325        -1.215521         1.367272
 H        -1.341187        -1.710442         2.203129
 H        -2.438768        -1.997103         0.814690
 H         0.454818        -1.979797         0.581658
 H        -0.814023        -1.684199        -0.693332
 H        -0.051585         1.948001         0.648278
 H        -1.038304         1.551241        -0.693153
 H        -2.713240         1.961244         0.760270
