19
Iteration:  3154
 C        -3.946496        -0.265877         1.350343
 C        -2.382007        -0.114160         1.402435
 C        -1.437802        -1.385580         1.107193
 C         0.001683        -1.016491         1.157236
 C         0.015651         0.119542         0.162277
 O         0.367875        -0.089470        -0.959560
 C        -0.558741         1.546165         0.574470
 C        -1.861723         1.275855         1.375143
 O        -1.968263         0.560040         2.601895
 H        -4.294043        -0.862704         2.300892
 H        -4.342702         0.758149         1.419168
 H        -4.000097        -0.834922         0.405826
 H        -1.726162        -2.176124         1.861454
 H        -1.567456        -1.723655         0.133504
 H         0.193210        -0.648073         2.234803
 H         0.593484        -1.850661         0.813059
 H         0.302384         2.144369         0.964953
 H        -0.829652         1.910366        -0.411976
 H        -2.569720         2.107192         1.224429
