19
Iteration:  4269charge 0 multiplicity 1
 C        -3.816973        -0.243514         2.339079
 C        -2.484233        -0.143504         1.529887
 C        -1.867588        -1.374574         0.720551
 C        -0.290769        -1.271842         0.532661
 C        -0.024181         0.160683         0.082750
 O         1.159704         0.490848         0.085276
 C        -1.127768         1.197825        -0.125100
 C        -1.951700         1.214617         1.159051
 O        -1.510876         0.531675         2.300279
 H        -3.602655        -0.947571         3.184351
 H        -3.999821         0.704827         2.691045
 H        -4.618026        -0.588628         1.747873
 H        -2.295338        -2.238647         1.219081
 H        -2.384660        -1.307568        -0.259341
 H         0.448549        -1.516286         1.253530
 H        -0.037774        -1.991771        -0.282496
 H        -0.704499         2.184629        -0.182362
 H        -1.785343         0.963711        -1.007326
 H        -2.482087         2.185050         1.392306
