19
Iteration:   235
 C        -3.996240        -0.103632         1.820296
 C        -2.526771        -0.008254         1.516499
 C        -1.894317        -1.287475         0.956520
 C        -0.323805        -1.279301         0.927207
 C         0.131894        -0.047491         0.138735
 O         1.064170         0.039308        -0.575736
 C        -0.712963         1.249698         0.230142
 C        -1.862762         1.257357         1.135675
 O        -1.733816         0.744001         2.527066
 H        -4.177712        -0.979765         2.480010
 H        -4.476738         0.874089         2.239477
 H        -4.467190        -0.328118         0.890829
 H        -2.200521        -2.110064         1.613474
 H        -2.353491        -1.538100        -0.026243
 H         0.047697        -1.126370         1.982319
 H         0.021372        -2.251615         0.559306
 H        -0.006469         1.946478         0.675304
 H        -0.857322         1.680006        -0.757073
 H        -2.443260         2.204039         1.198314
