19
Iteration:   253charge 0 multiplicity 1
 C        -4.059659        -0.068768         1.673631
 C        -2.517302        -0.052006         1.519653
 C        -1.854332        -1.283245         1.064178
 C        -0.341595        -1.031219         1.067506
 C         0.139037         0.036176         0.099425
 O         1.026984        -0.136558        -0.718706
 C        -0.655076         1.351641         0.303822
 C        -1.924200         1.249777         1.209244
 O        -1.694856         0.535102         2.504762
 H        -4.293579        -0.919908         2.418888
 H        -4.304063         0.834126         2.164174
 H        -4.585697        -0.048178         0.672597
 H        -2.138630        -2.101432         1.710252
 H        -2.147025        -1.481985         0.065415
 H         0.096256        -0.849489         2.097565
 H         0.185118        -1.882742         0.699886
 H         0.124024         2.145011         0.609181
 H        -1.027706         1.623391        -0.678920
 H        -2.514894         2.137217         1.189343
