19
Iteration:  4217
 C        -4.054566        -0.385248         2.140861
 C        -2.467215        -0.188967         1.673714
 C        -1.749240        -1.356724         0.951034
 C        -0.376188        -1.140090         0.525917
 C         0.053702         0.220845         0.035496
 O         1.263959         0.316138        -0.233189
 C        -1.001792         1.367992        -0.022063
 C        -2.022888         1.150239         1.154560
 O        -1.521511         0.611912         2.454674
 H        -4.246256        -1.522051         2.197417
 H        -4.244626         0.116200         3.070852
 H        -4.720075         0.009306         1.332560
 H        -1.929618        -2.181042         1.531883
 H        -2.489466        -1.415233         0.088531
 H         0.366992        -1.233440         1.335917
 H        -0.064685        -1.925263        -0.183462
 H        -0.645258         2.475159        -0.006501
 H        -1.584422         1.199614        -0.949766
 H        -2.735210         1.894610         1.314379
