19
Iteration:  2863
 C        -3.674814        -0.341049         2.405050
 C        -2.422564        -0.112271         1.543181
 C        -1.744692        -1.355851         0.993536
 C        -0.561068        -1.369382        -0.048813
 C         0.006940         0.083678         0.151614
 O         1.048579         0.324137         0.649329
 C        -0.972985         1.186148        -0.170502
 C        -2.060168         1.217681         0.894058
 O        -1.532271         0.926373         2.154268
 H        -3.308928        -0.962268         3.290920
 H        -3.986792         0.627867         2.607225
 H        -4.282619        -0.973866         1.713374
 H        -1.508506        -2.063694         1.745474
 H        -2.592783        -1.928488         0.535158
 H         0.244332        -2.086011         0.300494
 H        -0.887683        -1.373067        -1.086036
 H        -0.336243         2.145299        -0.117757
 H        -1.458424         1.162863        -1.081706
 H        -2.835549         2.029654         0.823323
