19
Iteration:  3149
 C        -3.912546        -0.237228         1.368434
 C        -2.377838        -0.157859         1.415721
 C        -1.439558        -1.386206         1.056192
 C         0.008344        -1.033391         1.200127
 C         0.028792         0.175413         0.171626
 O         0.380203        -0.096314        -0.957282
 C        -0.580319         1.531137         0.554365
 C        -1.857830         1.243487         1.375484
 O        -1.960564         0.571837         2.604636
 H        -4.384569        -0.655789         2.202946
 H        -4.429315         0.754899         1.412162
 H        -4.222104        -0.860069         0.509138
 H        -1.848197        -2.154861         1.692004
 H        -1.686901        -1.753341        -0.020567
 H         0.149603        -0.561222         2.132712
 H         0.698731        -1.876243         0.973016
 H         0.197453         2.242649         0.946711
 H        -0.984173         1.774531        -0.465312
 H        -2.507715         2.121965         1.330525
