19
Iteration:  4681charge 0 multiplicity 1
 C        -3.914307        -0.641610         1.617875
 C        -2.456853        -0.089961         1.579476
 C        -1.387097        -1.110176         1.824164
 C        -0.598315        -1.314479         0.395308
 C         0.053325         0.046936        -0.062089
 O         0.991396         0.185764        -0.799962
 C        -0.491821         1.344415         0.583445
 C        -1.862870         1.187611         1.036670
 O        -2.191120         0.935276         2.558427
 H        -4.340865        -0.408358         0.582628
 H        -3.916486        -1.653675         1.817543
 H        -4.494105         0.050812         2.188962
 H        -0.550154        -0.688784         2.531050
 H        -1.829605        -2.010635         2.222169
 H         0.230829        -1.955873         0.406294
 H        -1.046482        -1.876540        -0.477693
 H         0.275947         1.716391         1.189786
 H        -0.541345         2.104069        -0.345408
 H        -2.567327         2.000175         0.825460
