19
Iteration:  1664
 C        -3.765414        -0.299782         0.962357
 C        -2.354365        -0.076224         1.525869
 C        -1.424194        -1.249860         1.781013
 C        -0.127914        -1.297089         0.899243
 C         0.012864        -0.032241         0.079100
 O         0.030283         0.062803        -1.124764
 C        -0.122303         1.157816         1.057589
 C        -1.705359         1.169357         1.170168
 O        -2.248624         1.128424         2.455061
 H        -4.290454        -1.165299         1.435193
 H        -4.458071         0.646586         1.048630
 H        -3.578760        -0.417440        -0.106897
 H        -1.206450        -1.213937         2.852621
 H        -2.046640        -2.119009         1.679928
 H         0.841020        -1.600123         1.448523
 H        -0.253733        -2.197107         0.286967
 H         0.341905         0.754362         1.995338
 H         0.235509         2.185680         0.695200
 H        -2.151801         1.894619         0.437884
