19
Iteration:   989charge 0 multiplicity 1
 C        -3.830393        -0.333826         1.150021
 C        -2.365663        -0.074493         1.519425
 C        -1.560502        -1.352359         1.273554
 C        -0.067334        -1.137318         0.993977
 C         0.024965         0.120978         0.095178
 O         0.120577        -0.041574        -1.104765
 C        -0.236987         1.448586         0.838140
 C        -1.746098         1.236762         1.361058
 O        -2.057972         0.746750         2.660375
 H        -4.321218        -0.996818         1.916437
 H        -4.437283         0.515149         1.136660
 H        -3.827098        -0.902813         0.171275
 H        -1.692101        -1.988887         2.105804
 H        -2.052614        -1.772482         0.442252
 H         0.413810        -0.937779         1.984506
 H         0.454272        -1.905149         0.516892
 H         0.443823         1.604527         1.653481
 H        -0.112618         2.426891         0.146521
 H        -2.376850         2.049705         1.030434
