19
Iteration:   431charge 0 multiplicity 1
 C        -3.741859        -0.421778         0.967443
 C        -2.405493        -0.038650         1.502778
 C        -1.502053        -1.249072         1.848528
 C        -0.316694        -1.370114         0.738379
 C        -0.081199        -0.012498         0.089629
 O         0.245844         0.074592        -1.062820
 C        -0.145904         1.259419         0.954500
 C        -1.665534         1.387132         1.244660
 O        -2.164750         0.967643         2.524185
 H        -4.196218        -1.127104         1.650860
 H        -4.530330         0.458133         0.749273
 H        -3.469333        -0.952792         0.088620
 H        -1.177841        -1.175221         2.863248
 H        -2.144165        -2.106466         1.809390
 H         0.652676        -1.548406         1.206189
 H        -0.580235        -2.214274         0.004634
 H         0.592509         1.327703         1.825715
 H         0.227662         2.030916         0.193495
 H        -2.261870         2.266618         0.843670
