19
Iteration:   127
 C        -3.815966         0.051886         2.159399
 C        -2.385121        -0.070687         1.593455
 C        -1.872363        -1.475338         1.066286
 C        -0.691037        -1.294926        -0.000761
 C        -0.009355         0.047763         0.150206
 O         1.144238         0.173033         0.601663
 C        -0.958304         1.168899        -0.186299
 C        -1.907023         1.195332         0.961056
 O        -1.406813         0.776795         2.258527
 H        -3.907227        -0.527962         3.057185
 H        -3.996624         1.166969         2.384670
 H        -4.508636        -0.340433         1.437300
 H        -1.272644        -2.037574         1.859192
 H        -2.747983        -2.190208         0.774731
 H         0.055029        -2.066980         0.169079
 H        -1.075375        -1.454401        -1.087420
 H        -0.394080         2.086540        -0.291370
 H        -1.559467         0.858772        -1.133793
 H        -2.555880         2.115071         0.957869
