19
Iteration:   916charge 0 multiplicity 1
 C        -4.033350        -0.307368         1.807943
 C        -2.567017        -0.088854         1.488779
 C        -1.802761        -1.314323         1.055564
 C        -0.302652        -1.018542         0.871166
 C         0.105286         0.127913         0.026661
 O         0.975318         0.043027        -0.817522
 C        -0.556051         1.476622         0.461562
 C        -1.881848         1.170695         1.190977
 O        -1.817678         0.538639         2.538634
 H        -4.198215        -1.092278         2.548264
 H        -4.444347         0.586141         2.230375
 H        -4.572145        -0.645199         0.892224
 H        -1.779393        -2.097989         1.890910
 H        -2.205663        -1.857180         0.147993
 H         0.200801        -0.748036         1.834114
 H         0.098068        -1.955285         0.625636
 H         0.069764         1.926473         1.244397
 H        -0.587779         2.227165        -0.284809
 H        -2.499721         2.066882         1.264932
