19
Iteration:  1615charge 0 multiplicity 1
 C        -3.644726        -0.334094         0.768770
 C        -2.350221        -0.006619         1.484605
 C        -1.436768        -1.174789         1.886385
 C        -0.264316        -1.398007         0.881991
 C         0.019797        -0.037817         0.107884
 O         0.072890         0.050297        -1.130503
 C        -0.232459         1.226672         0.867313
 C        -1.669384         1.290609         1.315956
 O        -2.193012         0.969607         2.625583
 H        -4.307052        -0.861691         1.517686
 H        -4.151406         0.562352         0.460057
 H        -3.468267        -0.851867        -0.230031
 H        -1.139675        -0.922946         2.940838
 H        -2.044768        -2.187784         2.032528
 H         0.523937        -1.832852         1.450668
 H        -0.523023        -2.214053         0.167049
 H         0.409339         1.361893         1.709728
 H        -0.104297         2.039023         0.208121
 H        -2.232274         2.084255         0.836650
