19
Iteration:  2945charge 0 multiplicity 1
 C        -3.805389        -0.203623         2.107369
 C        -2.395787        -0.170225         1.605586
 C        -1.792562        -1.532636         1.049830
 C        -0.555633        -1.338488         0.160968
 C         0.058320         0.150659         0.017824
 O         1.206467         0.424854         0.299732
 C        -0.934288         1.239387        -0.082766
 C        -1.988692         1.119444         1.071038
 O        -1.628096         0.824206         2.376158
 H        -3.861808        -0.658348         3.075211
 H        -4.175875         0.864191         2.419375
 H        -4.644401        -0.599306         1.596379
 H        -1.523646        -2.050739         2.038161
 H        -2.609566        -1.950838         0.506132
 H         0.238907        -2.061072         0.347120
 H        -0.692954        -1.614991        -0.879855
 H        -0.503582         2.166955        -0.226808
 H        -1.616768         1.150672        -0.927927
 H        -2.731215         1.884311         0.882681
