19
Iteration:  3494
 C        -3.985217        -0.440829         1.791897
 C        -2.490714        -0.111758         1.620809
 C        -1.427160        -1.330652         1.418304
 C        -0.526750        -1.290523         0.230548
 C         0.076683         0.113429         0.084320
 O         1.237826         0.343861        -0.333614
 C        -0.892371         1.281715         0.227095
 C        -2.087931         1.140637         1.167764
 O        -1.772425         0.866249         2.521492
 H        -4.149210        -1.517566         2.033568
 H        -4.454968         0.019876         2.601993
 H        -4.763448        -0.294879         0.979143
 H        -0.801915        -1.396408         2.372614
 H        -1.919938        -2.281447         1.370580
 H         0.160484        -2.124634         0.225379
 H        -0.927318        -1.299081        -0.782715
 H        -0.469966         2.224699         0.544186
 H        -1.041582         1.432058        -0.873556
 H        -2.919935         1.824633         0.826289
