19
Iteration:  2363
 C        -4.070629        -0.345578         1.318600
 C        -2.532188        -0.123567         1.553154
 C        -1.568940        -1.269754         1.511182
 C        -0.110568        -1.113638         0.934460
 C         0.119724         0.081799        -0.020372
 O         0.587182         0.065172        -1.148315
 C        -0.327187         1.274085         0.697430
 C        -1.852758         1.164735         1.295367
 O        -2.027200         0.847417         2.635601
 H        -4.439270        -1.328393         1.715134
 H        -4.702435         0.375625         1.723980
 H        -4.263161        -0.357550         0.201738
 H        -1.608476        -1.868441         2.392608
 H        -2.046569        -1.975711         0.805570
 H         0.541704        -0.945672         1.739002
 H         0.159145        -2.042942         0.414387
 H         0.433940         1.607143         1.592868
 H        -0.433657         2.095871        -0.093743
 H        -2.364778         2.102915         1.000534
