19
Iteration:  3361charge 0 multiplicity 1
 C        -3.758783        -0.696037         1.374612
 C        -2.419467        -0.179631         1.714858
 C        -1.305259        -1.237532         1.708053
 C        -0.661040        -1.179100         0.329939
 C         0.089445         0.081555         0.002482
 O         0.841919         0.196969        -0.954648
 C        -0.396616         1.314640         0.870215
 C        -1.886036         1.221174         1.173756
 O        -2.310182         1.071204         2.555169
 H        -4.352192        -0.692633         2.334392
 H        -4.395229        -0.132633         0.732350
 H        -3.603269        -1.779930         1.163963
 H        -0.407954        -1.062067         2.434138
 H        -1.685294        -2.200066         2.127798
 H        -0.031524        -2.075885         0.123776
 H        -1.317804        -1.048455        -0.486360
 H         0.263293         1.137007         1.803706
 H        -0.193913         2.347384         0.446839
 H        -2.608402         1.613186         0.395209
