19
Iteration:  1052
 C        -3.727174        -0.156280         0.997616
 C        -2.297845        -0.153967         1.481988
 C        -1.429018        -1.456630         1.319551
 C         0.076401        -1.186518         1.038577
 C         0.056159         0.138088         0.182395
 O        -0.178478        -0.097107        -0.991645
 C        -0.303707         1.470992         0.833396
 C        -1.795696         1.265544         1.350360
 O        -2.048674         0.784318         2.603633
 H        -4.189811        -1.185409         0.995115
 H        -4.332318         0.590867         1.463034
 H        -3.774585        -0.066101        -0.089482
 H        -1.496894        -2.389008         2.003024
 H        -1.965116        -1.913551         0.452527
 H         0.384488        -1.104174         2.116868
 H         0.718913        -1.969359         0.616304
 H         0.318392         1.780100         1.707898
 H        -0.352107         2.413874         0.138850
 H        -2.522695         2.066599         1.132553
