19
Iteration:  2620
 C        -3.902225        -0.530808         1.555851
 C        -2.440149        -0.095464         1.562267
 C        -1.427190        -1.199719         1.563095
 C        -0.569634        -1.263628         0.315256
 C         0.056306         0.069588        -0.010862
 O         1.086703         0.003452        -0.717676
 C        -0.540694         1.382652         0.583014
 C        -1.918073         1.227456         1.213615
 O        -2.219884         0.973912         2.612857
 H        -3.850102        -1.542254         1.967176
 H        -4.496398         0.167166         2.276490
 H        -4.228305        -0.496559         0.543491
 H        -0.709246        -0.870990         2.328870
 H        -1.886427        -2.084113         2.020098
 H         0.331442        -1.948376         0.401388
 H        -1.088454        -1.712839        -0.507497
 H         0.247298         1.814430         1.368965
 H        -0.592033         2.200402        -0.162995
 H        -2.566000         2.037294         0.829876
