19
Iteration:  4711
 C        -3.817531        -0.538499         1.397646
 C        -2.371868        -0.068220         1.737449
 C        -1.227165        -1.188535         1.801144
 C        -0.462376        -1.353193         0.377228
 C         0.019129        -0.019952        -0.011032
 O         0.900560         0.083312        -0.875151
 C        -0.632064         1.319017         0.622452
 C        -2.059988         1.255205         1.138449
 O        -2.190567         1.069256         2.592537
 H        -3.898815        -0.225222         0.365521
 H        -3.929704        -1.628146         1.563515
 H        -4.569554        -0.036570         1.982127
 H        -0.489299        -0.871668         2.495429
 H        -1.708636        -2.175823         1.978176
 H         0.370925        -2.085874         0.299386
 H        -1.164310        -1.546403        -0.444497
 H         0.018494         1.472743         1.545129
 H        -0.381124         2.177318         0.017799
 H        -2.858468         1.898312         0.735847
