19
Iteration:  1723charge 0 multiplicity 1
 C        -3.874404        -0.329850         1.163673
 C        -2.384754        -0.053963         1.528723
 C        -1.446102        -1.251652         1.765551
 C        -0.311609        -1.323447         0.710589
 C         0.125631         0.003946         0.022972
 O         0.449027        -0.033664        -1.122903
 C        -0.218336         1.281274         1.010324
 C        -1.780292         1.226299         1.128131
 O        -2.273501         1.056586         2.528989
 H        -4.405081        -0.621094         2.038258
 H        -4.402516         0.516253         0.767793
 H        -4.073881        -1.206408         0.512222
 H        -1.038421        -0.958375         2.715590
 H        -1.938260        -2.208694         1.881180
 H         0.562733        -1.742647         1.217147
 H        -0.651659        -1.969694        -0.155672
 H         0.339816         1.224108         1.999306
 H        -0.021894         2.297285         0.702482
 H        -2.385966         1.956768         0.624355
