19
Iteration:  3484
 C        -3.977578        -0.518853         1.711712
 C        -2.422433        -0.153238         1.660124
 C        -1.530659        -1.315696         1.475816
 C        -0.503367        -1.260745         0.258971
 C         0.100407         0.098245         0.094215
 O         1.157109         0.337245        -0.401967
 C        -0.854786         1.312782         0.259758
 C        -2.045815         1.215482         1.109687
 O        -1.778897         0.847921         2.537201
 H        -3.974512        -1.575175         1.956688
 H        -4.433320         0.028661         2.509705
 H        -4.548712        -0.349698         0.772721
 H        -0.873555        -1.233561         2.354097
 H        -2.102884        -2.213430         1.473194
 H         0.227446        -2.044121         0.344134
 H        -1.157173        -1.451763        -0.489394
 H        -0.099398         2.068432         0.635437
 H        -1.190435         1.682495        -0.734240
 H        -2.933676         1.881199         0.958713
