19
Iteration:    52
 C        -3.696633        -0.200754         2.353892
 C        -2.435474         0.012242         1.544104
 C        -1.784426        -1.369759         1.142855
 C        -0.739797        -1.230403        -0.030770
 C         0.014470        -0.013250         0.093521
 O         1.144347        -0.105645         0.664815
 C        -0.814904         1.259325        -0.118508
 C        -2.005352         1.199796         0.784256
 O        -1.576315         1.017022         2.126612
 H        -3.840867        -1.252784         2.495142
 H        -3.734544         0.544638         3.292441
 H        -4.585337        -0.048825         1.642390
 H        -1.259001        -1.674286         2.037744
 H        -2.506730        -2.144146         0.908024
 H        -0.031649        -1.988762        -0.118011
 H        -1.356230        -1.258200        -1.009474
 H        -0.293940         2.100675         0.259076
 H        -1.137229         1.397121        -1.195919
 H        -2.638300         2.136359         0.597620
