19
Iteration:   475
 C        -3.753298        -0.378361         1.074496
 C        -2.323563        -0.073080         1.672526
 C        -1.249094        -1.222186         1.912506
 C        -0.552955        -1.348667         0.590429
 C        -0.038518        -0.009237        -0.008309
 O         0.508630         0.067388        -1.107344
 C        -0.229045         1.149796         1.008070
 C        -1.699499         1.241093         1.177536
 O        -2.420550         1.119696         2.499409
 H        -4.301237        -1.225603         1.402935
 H        -4.255864         0.684515         1.313666
 H        -3.606315        -0.537515         0.067834
 H        -0.539230        -0.997678         2.692455
 H        -1.712982        -2.147220         2.247980
 H         0.356792        -1.935493         0.684481
 H        -1.192662        -1.875703        -0.240792
 H         0.266473         0.923893         2.017682
 H         0.170523         2.194600         0.697471
 H        -2.335608         1.900687         0.482187
