19
Iteration:  1049charge 0 multiplicity 1
 C        -3.743845        -0.142533         0.977251
 C        -2.300546        -0.154946         1.491983
 C        -1.433657        -1.447637         1.341700
 C         0.082031        -1.176389         1.058504
 C         0.072460         0.130490         0.164182
 O        -0.191353        -0.082876        -0.995463
 C        -0.289609         1.466975         0.820843
 C        -1.796640         1.242176         1.341204
 O        -2.043122         0.764371         2.602978
 H        -4.160338        -1.155601         1.032795
 H        -4.423387         0.737567         1.437099
 H        -3.759251         0.026975        -0.111738
 H        -1.495009        -2.362815         2.119272
 H        -1.910133        -1.996503         0.408184
 H         0.448981        -1.047963         2.091053
 H         0.813076        -1.950643         0.536228
 H         0.215919         1.819128         1.784769
 H        -0.387498         2.232785         0.197211
 H        -2.569814         2.048496         1.210728
