19
Iteration:  2523charge 0 multiplicity 1
 C        -3.969898        -0.547342         1.476819
 C        -2.445385        -0.124508         1.527501
 C        -1.409962        -1.139060         1.728202
 C        -0.633314        -1.187525         0.430514
 C         0.074587         0.094236         0.051112
 O         0.897616         0.090969        -0.901270
 C        -0.366401         1.359099         0.781549
 C        -1.883521         1.244725         1.162041
 O        -2.104163         0.827062         2.485967
 H        -4.311572        -0.503983         2.524476
 H        -4.509976         0.308418         0.890377
 H        -4.027657        -1.483611         0.926250
 H        -0.774648        -0.940080         2.643534
 H        -1.955785        -2.143470         1.874288
 H         0.199112        -2.003112         0.620122
 H        -1.038694        -1.749821        -0.432526
 H         0.271520         1.585862         1.667816
 H        -0.159912         2.203841         0.165223
 H        -2.650188         1.926554         0.640193
