19
Iteration:  2503
 C        -3.954033        -0.424380         1.405493
 C        -2.502295        -0.093551         1.637646
 C        -1.485921        -1.363007         1.674856
 C        -0.410852        -1.307755         0.558054
 C         0.084785         0.071827         0.063466
 O         0.820685         0.238358        -0.936294
 C        -0.404454         1.327846         0.674297
 C        -1.797852         1.123077         1.172793
 O        -2.130892         0.983319         2.553778
 H        -4.477802        -0.431966         2.411878
 H        -4.550616         0.316758         0.824740
 H        -4.090579        -1.426901         0.850340
 H        -0.941178        -1.257536         2.648684
 H        -2.000931        -2.390394         1.752846
 H         0.481734        -2.054435         0.410335
 H        -0.950925        -1.578978        -0.398635
 H         0.159821         1.595872         1.491094
 H        -0.327500         2.097407        -0.015124
 H        -2.559965         1.867011         0.679157
