19
Iteration:  2542charge 0 multiplicity 1
 C        -3.843852        -0.544852         1.489153
 C        -2.398625        -0.077628         1.573935
 C        -1.347520        -1.201884         1.618886
 C        -0.558331        -1.271609         0.296088
 C         0.039186         0.059376        -0.035009
 O         0.973186        -0.000934        -0.836961
 C        -0.488935         1.327362         0.804994
 C        -1.957297         1.267364         1.150080
 O        -2.264749         1.026827         2.608961
 H        -4.060352        -0.843905         2.490751
 H        -4.536104         0.309384         1.136932
 H        -3.802602        -1.425670         0.911244
 H        -0.720700        -0.800149         2.420665
 H        -1.729695        -2.154319         1.921800
 H         0.046612        -2.142974         0.241481
 H        -1.290881        -1.420490        -0.512354
 H         0.162562         1.170857         1.808155
 H        -0.145119         2.363457         0.423007
 H        -2.467678         2.118343         0.798485
