19
Iteration:  3252
 C        -3.985047        -0.469281         1.324461
 C        -2.424428        -0.117017         1.489963
 C        -1.406959        -1.310954         1.649146
 C        -0.125606        -1.283952         0.780144
 C         0.053018         0.122952         0.071885
 O         0.448361         0.191606        -1.048762
 C        -0.365819         1.343998         0.840024
 C        -1.838424         1.201886         1.156587
 O        -2.134660         0.883722         2.478313
 H        -4.080095        -1.549936         1.368870
 H        -4.614121         0.009445         2.065783
 H        -4.265136        -0.144296         0.324809
 H        -1.158432        -1.149432         2.741473
 H        -1.970336        -2.209820         1.498952
 H         0.941131        -1.345623         1.146565
 H        -0.260932        -2.072887         0.050511
 H        -0.014393         1.312755         1.961100
 H        -0.113624         2.348254         0.439618
 H        -2.248742         2.031415         0.544083
