19
Iteration:  4484charge 0 multiplicity 1
 C        -3.867458        -0.498451         2.013621
 C        -2.437128        -0.153015         1.650212
 C        -1.495871        -1.291098         1.379698
 C        -0.729966        -1.239084         0.072003
 C         0.118289         0.131486         0.073454
 O         1.306028         0.211861        -0.225841
 C        -0.768464         1.345771         0.156877
 C        -1.999295         1.173132         1.036366
 O        -1.960322         0.894941         2.536662
 H        -3.741119        -1.604553         2.226221
 H        -4.306307         0.106696         2.840455
 H        -4.516395        -0.290521         1.161368
 H        -0.897726        -1.541348         2.274881
 H        -2.117366        -2.151520         1.361551
 H        -0.027207        -2.044959        -0.115179
 H        -1.403029        -1.259214        -0.808389
 H        -0.231366         2.247616         0.416737
 H        -1.195240         1.579278        -0.904087
 H        -2.781987         1.913918         0.781179
