19
Iteration:  3974charge 0 multiplicity 1
 C        -3.851568        -0.442534         1.170570
 C        -2.354370        -0.195221         1.664050
 C        -1.482133        -1.475854         1.478761
 C        -0.052775        -1.177549         0.925394
 C         0.000773         0.160729         0.040266
 O         0.267228         0.272850        -1.157311
 C        -0.461798         1.442491         0.802508
 C        -1.805838         1.137780         1.259286
 O        -2.011136         0.826137         2.663071
 H        -4.069969        -1.545467         1.326859
 H        -4.495296         0.283208         1.863331
 H        -3.898842        -0.099238         0.122987
 H        -1.350306        -2.124214         2.336194
 H        -1.892371        -2.035000         0.528739
 H         0.643445        -1.051953         1.724755
 H         0.184710        -2.147205         0.385524
 H         0.221087         1.907377         1.474081
 H        -0.702914         2.248832         0.022730
 H        -2.529295         1.868299         0.805747
