19
Iteration:  1971charge 0 multiplicity 1
 C        -3.864281        -0.095420         2.188354
 C        -2.418188        -0.163235         1.548664
 C        -1.844861        -1.483149         1.142966
 C        -0.611501        -1.246534         0.256780
 C         0.054651         0.112237         0.255517
 O         1.256381         0.283406         0.276568
 C        -1.000756         1.291339        -0.109218
 C        -2.075161         1.122731         0.938551
 O        -1.428911         0.755786         2.159396
 H        -4.155050        -0.940218         2.782483
 H        -3.985181         0.798565         2.807343
 H        -4.561975        -0.054380         1.388529
 H        -1.514144        -2.102251         2.046076
 H        -2.636121        -2.168180         0.675384
 H         0.159628        -1.973268         0.517680
 H        -0.781493        -1.558010        -0.786435
 H        -0.435235         2.180946        -0.001852
 H        -1.216418         1.166550        -1.173212
 H        -2.825217         1.853907         0.906210
