19
Iteration:   689
 C        -3.828967        -0.109126         2.182102
 C        -2.448962        -0.165566         1.554523
 C        -1.715159        -1.466126         1.202701
 C        -0.720973        -1.196523         0.049873
 C         0.013297         0.137136         0.120808
 O         1.207129         0.200334         0.399095
 C        -0.890685         1.284021        -0.144690
 C        -1.954878         1.099622         0.928153
 O        -1.538348         0.789364         2.272810
 H        -3.856852        -0.647787         3.155032
 H        -4.082350         0.865095         2.556485
 H        -4.589388        -0.659142         1.546052
 H        -1.257326        -1.840902         2.111168
 H        -2.396998        -2.216819         0.904852
 H         0.052596        -2.017092         0.111663
 H        -1.256760        -1.286236        -0.964392
 H        -0.374436         2.197456         0.154846
 H        -1.400174         1.340856        -1.107759
 H        -2.817887         1.712075         0.859282
