19
Iteration:  1100charge 0 multiplicity 1
 C        -4.040338        -0.415487         1.290481
 C        -2.431978        -0.065481         1.428280
 C        -1.581436        -1.320845         1.180536
 C        -0.054126        -1.071278         1.156437
 C         0.132440         0.068617         0.090143
 O         0.175939         0.014590        -1.143239
 C        -0.229426         1.389548         0.857165
 C        -1.717100         1.318929         1.307348
 O        -1.962164         0.695681         2.556389
 H        -4.448523        -1.232262         1.852001
 H        -4.582520         0.527597         1.547867
 H        -4.275110        -0.730311         0.262631
 H        -1.751531        -1.839158         2.061729
 H        -1.850305        -2.064700         0.472116
 H         0.360578        -0.732492         2.082846
 H         0.528865        -1.972829         0.904956
 H         0.300001         1.592615         1.825617
 H        -0.090287         2.379795         0.245941
 H        -2.430941         2.134813         1.168069
