19
Iteration:  1705
 C        -3.798922        -0.389083         1.168749
 C        -2.391953        -0.073142         1.456188
 C        -1.479039        -1.227073         1.749315
 C        -0.314674        -1.338112         0.767250
 C         0.014245         0.029431         0.191186
 O         0.243587         0.041167        -0.988341
 C        -0.153684         1.282186         0.957899
 C        -1.662574         1.261325         1.122624
 O        -2.187261         1.025951         2.383186
 H        -4.224814        -0.931541         2.095257
 H        -4.365799         0.502210         0.914355
 H        -3.798499        -1.003480         0.220929
 H        -1.258522        -1.308704         2.859368
 H        -1.949676        -2.311810         1.585683
 H         0.606558        -1.683271         1.221298
 H        -0.610683        -1.827838        -0.147131
 H         0.247230         1.267803         1.926415
 H         0.260093         2.083760         0.367186
 H        -2.259412         1.883152         0.445747
