19
Iteration:  4804
 C        -3.867162        -0.594272         1.422919
 C        -2.418501        -0.159266         1.672575
 C        -1.301723        -1.246738         1.867505
 C        -0.478894        -1.192870         0.525238
 C        -0.017778         0.075509        -0.100558
 O         0.701823         0.212603        -1.082587
 C        -0.309884         1.231834         0.821413
 C        -1.811618         1.175853         1.145231
 O        -2.308191         1.072292         2.502551
 H        -3.960439        -1.665767         1.275736
 H        -4.400652        -0.059382         2.242467
 H        -4.359418        -0.098320         0.564514
 H        -0.595234        -1.064643         2.759342
 H        -1.870806        -2.132656         1.700981
 H         0.500088        -1.707481         0.646205
 H        -0.773045        -1.985376        -0.202023
 H         0.106777         1.073964         1.850790
 H         0.131177         2.209232         0.458806
 H        -2.493821         1.688184         0.495283
