19
Iteration:  4994
 C        -3.807330        -0.619814         1.512568
 C        -2.391682        -0.100738         1.667553
 C        -1.289455        -1.218172         1.793646
 C        -0.622639        -1.201264         0.394979
 C         0.039604         0.086667        -0.065027
 O         0.884226         0.139904        -0.955616
 C        -0.397676         1.347859         0.724155
 C        -1.908659         1.231943         1.052369
 O        -2.275562         0.973592         2.592237
 H        -4.051248        -1.118836         2.494622
 H        -4.556011         0.137702         1.316014
 H        -4.013930        -1.399355         0.744450
 H        -0.538990        -1.062803         2.545577
 H        -1.765603        -2.257591         1.824972
 H         0.144883        -2.022260         0.240565
 H        -1.428508        -1.460069        -0.316068
 H         0.017844         1.183053         1.793509
 H        -0.153844         2.251553         0.237734
 H        -2.730367         1.909707         0.737603
