19
Iteration:  2279charge 0 multiplicity 1
 C        -4.027895        -0.234083         1.705948
 C        -2.521711        -0.130847         1.404263
 C        -1.667003        -1.207532         0.951199
 C        -0.135804        -0.932330         1.154416
 C         0.138735         0.115738         0.128680
 O         0.692490        -0.149889        -0.933741
 C        -0.501811         1.429453         0.552338
 C        -1.868764         1.226048         1.231281
 O        -1.895578         0.513130         2.528652
 H        -4.203592        -0.710916         2.707616
 H        -4.532071         0.715709         1.624301
 H        -4.529944        -0.985043         1.022677
 H        -1.872296        -2.174171         1.458376
 H        -1.764622        -1.269357        -0.135753
 H         0.038589        -0.645453         2.217550
 H         0.472183        -1.820694         0.880857
 H         0.083425         2.026882         1.101432
 H        -0.807350         2.059319        -0.326867
 H        -2.488536         2.056392         1.160319
