19
Iteration:  2650charge 0 multiplicity 1
 C        -3.994753        -0.389460         1.568884
 C        -2.479961        -0.069244         1.712824
 C        -1.493677        -1.260718         1.578549
 C        -0.437917        -1.337140         0.405514
 C         0.168413         0.013749        -0.030013
 O         1.114250         0.249974        -0.722095
 C        -0.637477         1.214437         0.493819
 C        -1.967192         1.206604         1.167658
 O        -2.046545         0.916986         2.599136
 H        -4.428437        -1.256139         2.042314
 H        -4.828053         0.420369         1.611051
 H        -4.081450        -0.665912         0.478732
 H        -1.103895        -1.349328         2.598699
 H        -2.144488        -2.083084         1.513430
 H         0.325927        -2.029534         0.572066
 H        -1.162545        -1.665268        -0.397407
 H        -0.026639         1.819698         0.996623
 H        -0.864091         1.797559        -0.456297
 H        -2.510909         2.090672         1.024234
