19
Iteration:  2431charge 0 multiplicity 1
 C        -3.979718        -0.485488         1.435531
 C        -2.501959        -0.054001         1.527610
 C        -1.628491        -1.228032         1.637284
 C        -0.291224        -1.234386         0.737019
 C         0.249961         0.073177         0.111231
 O         0.618905         0.121398        -1.077912
 C        -0.348463         1.373044         0.781292
 C        -1.827232         1.257660         1.118577
 O        -2.059153         0.804237         2.498008
 H        -4.123312        -1.520091         1.751480
 H        -4.745270         0.004367         2.019792
 H        -4.312474        -0.332719         0.399144
 H        -1.364603        -1.287297         2.671600
 H        -2.067831        -2.158644         1.435841
 H         0.405578        -1.728490         1.383505
 H        -0.367625        -1.905519        -0.116747
 H         0.311499         1.828390         1.678575
 H        -0.196042         2.169618        -0.086412
 H        -2.443569         1.982301         0.722083
