19
Iteration:  1090
 C        -3.904176        -0.425281         1.196003
 C        -2.418669        -0.034993         1.438854
 C        -1.560495        -1.278408         1.234552
 C        -0.029578        -1.079166         1.135602
 C         0.122303         0.078337         0.122109
 O         0.045789         0.001860        -1.090160
 C        -0.276334         1.370861         0.861068
 C        -1.712803         1.299104         1.290242
 O        -1.989252         0.696804         2.573703
 H        -4.050100        -1.313151         1.768426
 H        -4.579529         0.466349         1.560440
 H        -4.075986        -0.451264         0.122588
 H        -1.710648        -1.918409         2.060818
 H        -1.832535        -1.742524         0.270127
 H         0.287962        -0.716810         2.091422
 H         0.366962        -2.123958         0.944337
 H         0.475572         1.292346         1.691811
 H        -0.052129         2.224005         0.174770
 H        -2.268049         2.215522         1.002506
