19
Iteration:  2229
 C        -4.061886        -0.280711         1.615222
 C        -2.514265        -0.113804         1.696130
 C        -1.814067        -1.274184         1.208308
 C        -0.268722        -1.187681         0.830340
 C         0.154975         0.065828         0.142279
 O         0.953076         0.152710        -0.767283
 C        -0.634328         1.301455         0.384557
 C        -1.904561         1.117661         1.128647
 O        -1.741204         0.781015         2.550384
 H        -4.292020        -1.307675         1.904480
 H        -4.599835         0.536694         2.252383
 H        -4.371324        -0.377406         0.592720
 H        -1.941751        -2.206287         1.801061
 H        -2.269524        -1.531085         0.212870
 H         0.418936        -1.300963         1.677980
 H        -0.098476        -1.990633         0.123322
 H        -0.089953         2.107691         1.118481
 H        -0.802794         1.854567        -0.504723
 H        -2.679571         2.013361         1.006128
