19
Iteration:  4968charge 0 multiplicity 1
 C        -3.879782        -0.715711         1.500854
 C        -2.485558        -0.154069         1.706166
 C        -1.369994        -1.168830         1.752441
 C        -0.566753        -1.186468         0.331756
 C         0.131650         0.054422        -0.071041
 O         0.832688         0.197524        -1.073357
 C        -0.362402         1.255226         0.873769
 C        -1.806306         1.097805         1.201850
 O        -2.273552         1.196756         2.575696
 H        -4.383881        -0.764207         2.443187
 H        -4.571924        -0.122143         0.796036
 H        -3.832465        -1.691619         1.073121
 H        -0.560533        -0.880302         2.498043
 H        -1.655264        -2.204887         1.751240
 H         0.211141        -1.912184         0.498369
 H        -1.209230        -1.608963        -0.450832
 H         0.179877         1.282216         1.789433
 H        -0.430927         2.144112         0.225205
 H        -2.497460         1.562485         0.558168
