19
Iteration:   399charge 0 multiplicity 1
 C        -3.800484        -0.174125         1.067594
 C        -2.392075        -0.090276         1.559045
 C        -1.472681        -1.315468         1.679545
 C        -0.095046        -1.248538         0.835620
 C         0.090702         0.039355         0.114920
 O         0.135688         0.002127        -1.125793
 C        -0.159497         1.213431         0.965662
 C        -1.764582         1.147082         1.147447
 O        -2.254684         0.999504         2.564032
 H        -4.479792        -0.590867         1.808724
 H        -4.071891         0.947419         0.633570
 H        -3.809398        -0.953192         0.296221
 H        -1.376783        -1.564215         2.691911
 H        -1.950585        -2.134983         1.249187
 H         0.761421        -1.323873         1.496457
 H         0.005528        -2.189583         0.149399
 H         0.279266         1.141662         2.009925
 H         0.156872         2.162925         0.417815
 H        -2.384274         1.905487         0.563997
