19
Iteration:  1769
 C        -3.841505        -0.352801         1.257584
 C        -2.450391        -0.068471         1.616482
 C        -1.395650        -1.210851         1.804945
 C        -0.560367        -1.424097         0.515913
 C         0.003867        -0.026133        -0.006150
 O         0.853407         0.072264        -0.907774
 C        -0.409859         1.264485         0.721748
 C        -1.855710         1.229664         1.185560
 O        -2.175442         1.083372         2.561350
 H        -4.487714        -0.731365         2.081801
 H        -4.338038         0.351789         0.751555
 H        -3.807154        -1.268515         0.594788
 H        -0.664700        -0.770086         2.510512
 H        -1.964046        -2.082358         2.299566
 H         0.301718        -1.980040         0.812134
 H        -1.163565        -2.012297        -0.255007
 H         0.202232         1.406323         1.629839
 H        -0.097873         2.093672         0.101393
 H        -2.586390         1.851660         0.634528
