19
Iteration:  4632charge 0 multiplicity 1
 C        -3.813617        -0.484917         1.717688
 C        -2.374823        -0.103307         1.790007
 C        -1.402688        -1.340602         1.578296
 C        -0.571793        -1.287121         0.313573
 C         0.077532         0.093926         0.015605
 O         1.082112         0.179534        -0.710149
 C        -0.592818         1.345336         0.563862
 C        -2.061140         1.098251         1.027576
 O        -2.171856         1.108117         2.465926
 H        -4.056256        -1.017191         0.812290
 H        -3.957499        -1.309563         2.500254
 H        -4.447856         0.428555         1.836466
 H        -0.733458        -1.520955         2.398832
 H        -1.982631        -2.335832         1.606209
 H         0.205035        -2.127957         0.225349
 H        -1.111237        -1.641056        -0.551134
 H        -0.028169         1.795122         1.487306
 H        -0.520911         2.065291        -0.189995
 H        -2.922293         1.502043         0.479448
