19
Iteration:  1770
 C        -3.840109        -0.359990         1.265132
 C        -2.440083        -0.073976         1.621926
 C        -1.398461        -1.208803         1.799090
 C        -0.566245        -1.425166         0.505633
 C         0.011721        -0.022095         0.008932
 O         0.853616         0.063713        -0.903726
 C        -0.412973         1.270534         0.718668
 C        -1.855028         1.235874         1.181774
 O        -2.171341         1.080970         2.553360
 H        -4.497669        -0.753603         2.080646
 H        -4.367975         0.356693         0.732592
 H        -3.816669        -1.248975         0.590099
 H        -0.645629        -0.774200         2.522738
 H        -1.998699        -2.080586         2.321518
 H         0.289211        -1.986518         0.815380
 H        -1.184190        -1.948213        -0.269061
 H         0.170733         1.426226         1.604827
 H        -0.102056         2.128207         0.111456
 H        -2.621546         1.859017         0.653050
