19
Iteration:   661charge 0 multiplicity 1
 C        -3.903563        -0.281207         2.091239
 C        -2.450730        -0.028886         1.626024
 C        -1.720924        -1.381729         1.262335
 C        -0.719505        -1.276810         0.033200
 C         0.154308         0.010621         0.113893
 O         1.360504         0.205184         0.108788
 C        -0.842213         1.201821         0.018823
 C        -2.048243         1.224942         1.020965
 O        -1.681216         0.901738         2.385042
 H        -3.988355        -1.207001         2.681144
 H        -4.343852         0.676736         2.640645
 H        -4.569088        -0.461022         1.282650
 H        -1.185607        -1.641323         2.213084
 H        -2.425592        -2.294134         1.026760
 H        -0.180977        -2.192994         0.024046
 H        -1.238091        -1.240556        -0.898365
 H        -0.167718         2.071199         0.213289
 H        -1.279326         1.303410        -1.023885
 H        -2.951927         1.939037         0.741296
