19
Iteration:    68charge 0 multiplicity 1
 C        -3.683507        -0.249886         2.262699
 C        -2.436663        -0.068935         1.412554
 C        -1.750044        -1.366601         1.145396
 C        -0.810573        -1.368005        -0.058949
 C        -0.038672        -0.009944         0.159937
 O         1.044778        -0.031347         0.743576
 C        -0.806967         1.321403        -0.172960
 C        -2.011101         1.327574         0.857210
 O        -1.421784         1.044833         2.127584
 H        -3.754450        -1.297118         2.737860
 H        -3.518435         0.307185         3.084906
 H        -4.667825         0.046003         2.009144
 H        -1.219906        -1.792020         2.041194
 H        -2.622164        -2.031339         0.947866
 H        -0.154759        -2.340653         0.092202
 H        -1.378227        -1.407433        -0.922660
 H        -0.117447         2.236851        -0.086589
 H        -1.113528         1.309798        -1.187348
 H        -2.810893         2.012781         0.874675
