19
Iteration:  2565charge 0 multiplicity 1
 C        -3.815239        -0.576376         1.466997
 C        -2.357886        -0.083744         1.826718
 C        -1.355002        -1.206082         1.678207
 C        -0.772211        -1.272298         0.200993
 C         0.021003        -0.043144        -0.079251
 O         1.085336         0.210547        -0.762307
 C        -0.437149         1.194572         0.746988
 C        -1.902656         1.159947         1.171201
 O        -2.303623         1.174966         2.522157
 H        -4.057879        -1.357312         2.177698
 H        -4.516631         0.391713         1.594990
 H        -3.743319        -1.069274         0.544136
 H        -0.514445        -1.139091         2.392958
 H        -1.913096        -2.143987         1.861717
 H        -0.094617        -2.159882         0.119039
 H        -1.612838        -1.502695        -0.446803
 H         0.293191         1.387762         1.743810
 H        -0.174798         2.057163         0.033893
 H        -2.612815         1.592493         0.456419
