19
Iteration:  1001
 C        -3.821651        -0.297448         1.090349
 C        -2.358090        -0.067071         1.424022
 C        -1.591811        -1.463851         1.355734
 C        -0.016251        -1.068305         1.067703
 C         0.042461         0.115623         0.047158
 O         0.020917        -0.046586        -1.175498
 C        -0.231771         1.453258         0.903490
 C        -1.681874         1.352941         1.367652
 O        -2.057455         0.664852         2.670772
 H        -4.225497        -1.123563         1.739439
 H        -4.398185         0.582765         1.069776
 H        -3.878862        -0.671610         0.000360
 H        -1.592414        -1.903328         2.306929
 H        -1.950422        -2.238267         0.715480
 H         0.354727        -0.751415         2.071878
 H         0.446203        -1.946292         0.811064
 H         0.472075         1.495932         1.666108
 H        -0.276522         2.457920         0.217549
 H        -2.351218         2.177795         1.168446
