19
Iteration:   386
 C        -3.947863        -0.184028         1.075573
 C        -2.461537        -0.080288         1.591761
 C        -1.442107        -1.335547         1.607258
 C         0.047870        -1.277701         0.937133
 C         0.065912        -0.051915         0.087684
 O         0.143081         0.061450        -1.136314
 C        -0.255233         1.197791         0.972847
 C        -1.684859         1.199132         1.189465
 O        -2.174680         0.994865         2.476963
 H        -4.698167        -0.419140         1.888342
 H        -4.337871         0.912283         0.760714
 H        -4.067407        -0.760625         0.216684
 H        -1.182444        -1.594484         2.646192
 H        -2.049244        -2.166141         1.199371
 H         0.830123        -1.278671         1.751106
 H         0.133956        -2.099685         0.230214
 H         0.315351         1.155088         2.013747
 H         0.048823         2.151950         0.512409
 H        -2.247245         1.871664         0.552566
