19
Iteration:  3767
 C        -3.913161        -0.405265         1.946989
 C        -2.506831        -0.209489         1.504683
 C        -1.729753        -1.410226         1.122377
 C        -0.341401        -1.163268         0.610833
 C         0.040259         0.193152         0.107143
 O         1.147446         0.420773        -0.422534
 C        -0.952380         1.351130         0.188515
 C        -1.990978         1.218359         1.191485
 O        -1.654103         0.602679         2.434278
 H        -4.103360        -1.456677         2.103611
 H        -4.154837         0.241037         2.892293
 H        -4.624694        -0.166782         1.154045
 H        -1.755914        -2.016342         2.106504
 H        -2.160771        -2.024685         0.309437
 H         0.376995        -1.406381         1.391641
 H        -0.158861        -1.863201        -0.233768
 H        -0.355323         2.262315         0.247152
 H        -1.414092         1.444909        -0.867960
 H        -2.656159         2.005284         1.425921
