19
Iteration:  3506
 C        -3.985972        -0.411141         1.932091
 C        -2.489194        -0.238060         1.624366
 C        -1.466695        -1.369915         1.396303
 C        -0.513948        -1.226104         0.138857
 C         0.131509         0.145270         0.062799
 O         1.288708         0.329628        -0.237453
 C        -0.909374         1.281258         0.186533
 C        -2.085091         1.127384         1.091240
 O        -1.847362         0.875565         2.486227
 H        -4.228918        -1.444453         2.109280
 H        -4.216647         0.263142         2.734886
 H        -4.416208        -0.035369         1.014191
 H        -0.816478        -1.378555         2.297613
 H        -2.006893        -2.290046         1.336578
 H         0.306010        -1.920450         0.205966
 H        -1.124752        -1.424051        -0.700849
 H        -0.319531         2.222785         0.316356
 H        -1.451340         1.342796        -0.775549
 H        -2.806308         1.964954         1.085849
