19
Iteration:  3439
 C        -3.894981        -0.484135         1.671743
 C        -2.476068        -0.221392         1.667593
 C        -1.397904        -1.317461         1.526016
 C        -0.447272        -1.215281         0.317405
 C         0.118907         0.153284         0.046070
 O         1.092156         0.170809        -0.701904
 C        -0.700525         1.412876         0.477752
 C        -2.041999         1.173365         1.166795
 O        -2.072408         0.888783         2.598839
 H        -4.323905        -1.061048         2.541039
 H        -4.438628         0.335131         1.372431
 H        -4.116738        -1.159019         0.797414
 H        -0.757888        -1.253654         2.443876
 H        -1.950109        -2.225532         1.376447
 H         0.316848        -2.002140         0.375683
 H        -1.051980        -1.328404        -0.563958
 H        -0.135895         2.057850         1.189956
 H        -0.792901         2.021512        -0.467123
 H        -2.844564         1.932606         0.886233
