19
Iteration:  4795
 C        -3.808381        -0.580898         1.428125
 C        -2.391873        -0.103624         1.630421
 C        -1.255103        -1.196251         1.752414
 C        -0.467387        -1.233082         0.497772
 C        -0.067615         0.072936        -0.086979
 O         0.702071         0.165725        -1.018134
 C        -0.348786         1.206372         0.847828
 C        -1.864613         1.196905         1.112438
 O        -2.317332         1.090685         2.531010
 H        -3.975886        -1.632761         1.360424
 H        -4.365334        -0.444682         2.431050
 H        -4.303654        -0.095432         0.580137
 H        -0.700655        -1.092106         2.669221
 H        -1.628971        -2.239977         1.945089
 H         0.559080        -1.640752         0.817504
 H        -0.902107        -1.864706        -0.296517
 H         0.169505         0.794336         1.766485
 H        -0.021793         2.145800         0.555420
 H        -2.425844         1.918545         0.541671
