19
Iteration:  3577
 C        -3.686554        -0.537268         2.261321
 C        -2.399683        -0.125335         1.555043
 C        -1.695287        -1.437685         1.113718
 C        -0.616124        -1.234468         0.028945
 C        -0.013945         0.213916         0.108736
 O         1.168827         0.323149         0.401351
 C        -1.020960         1.317016        -0.110314
 C        -2.064002         1.224113         0.925386
 O        -1.587050         0.828119         2.291822
 H        -3.312720        -0.927358         3.266878
 H        -4.149624         0.450761         2.344845
 H        -4.269801        -1.312205         1.669627
 H        -1.238604        -1.622024         2.085140
 H        -2.475343        -2.221866         0.812051
 H         0.186047        -1.996454        -0.004275
 H        -1.124836        -1.124246        -0.947488
 H        -0.614280         2.293046         0.216450
 H        -1.280724         1.372216        -1.206797
 H        -2.911729         1.915063         0.879924
