19
Iteration:  2719charge 0 multiplicity 1
 C        -4.027985        -0.457622         1.948647
 C        -2.612644        -0.068672         1.570884
 C        -1.684689        -1.272747         1.300367
 C        -0.439533        -1.293787         0.334145
 C         0.180270         0.045742         0.106796
 O         1.290095         0.253049        -0.464296
 C        -0.731025         1.250689         0.327575
 C        -1.990986         1.160563         1.062982
 O        -1.865759         0.933426         2.479703
 H        -4.060062        -0.736456         3.066725
 H        -4.659940         0.533646         1.749273
 H        -4.394768        -1.248851         1.300993
 H        -1.335044        -1.661185         2.257401
 H        -2.353507        -2.138736         1.031698
 H         0.266549        -2.029932         0.891201
 H        -0.686850        -1.636498        -0.701508
 H        -0.184407         2.058651         0.951409
 H        -0.884516         1.771408        -0.604739
 H        -2.663556         2.024775         0.774103
