19
Iteration:  4800
 C        -3.832163        -0.582183         1.425681
 C        -2.422438        -0.144454         1.649199
 C        -1.260023        -1.223811         1.814536
 C        -0.482041        -1.196975         0.514519
 C        -0.054236         0.060342        -0.099185
 O         0.703120         0.191414        -1.043338
 C        -0.315923         1.211132         0.832111
 C        -1.826975         1.193366         1.121916
 O        -2.317056         1.087776         2.526120
 H        -4.022186        -1.696732         1.316226
 H        -4.331449        -0.269085         2.319718
 H        -4.344799        -0.116425         0.572288
 H        -0.615935        -1.079684         2.729908
 H        -1.764403        -2.211962         1.750650
 H         0.470459        -1.655355         0.722478
 H        -0.772939        -1.942047        -0.238821
 H         0.083496         0.888903         1.782777
 H         0.058745         2.262081         0.488845
 H        -2.496369         1.842515         0.489450
