19
Iteration:  4425charge 0 multiplicity 1
 C        -3.826829        -0.301432         2.118461
 C        -2.425378        -0.212033         1.527321
 C        -1.605644        -1.506142         1.252624
 C        -0.572879        -1.160197         0.188862
 C        -0.044976         0.240537        -0.033462
 O         1.176397         0.262609         0.023215
 C        -0.825981         1.400270         0.056690
 C        -2.033160         1.190000         1.059501
 O        -1.725944         0.672376         2.391910
 H        -3.735019        -0.431716         3.156434
 H        -4.459315         0.578613         2.126855
 H        -4.417611        -1.184377         1.846348
 H        -1.093679        -1.740747         2.160806
 H        -2.316566        -2.348728         0.872207
 H         0.421143        -1.685625         0.450852
 H        -1.018243        -1.477942        -0.799779
 H        -0.080613         2.316629         0.199721
 H        -1.494697         1.603271        -0.799441
 H        -2.839383         1.881453         0.894074
