19
Iteration:   851charge 0 multiplicity 1
 C        -3.943044        -0.139146         2.088622
 C        -2.511470        -0.079674         1.557072
 C        -1.937957        -1.305968         0.810575
 C        -0.391328        -1.284608         0.642659
 C         0.146347         0.092598         0.129682
 O         1.304243         0.323260        -0.203176
 C        -1.054017         1.183915         0.010508
 C        -1.964101         1.209418         1.229658
 O        -1.541000         0.589199         2.428966
 H        -4.203907        -1.001660         2.689096
 H        -4.194338         0.699967         2.658507
 H        -4.436705        -0.270178         1.120173
 H        -2.232668        -2.314798         1.249751
 H        -2.370885        -1.290540        -0.217980
 H         0.055147        -1.433516         1.673590
 H         0.031721        -2.017113        -0.003261
 H        -0.686132         2.223151        -0.296010
 H        -1.714531         0.793599        -0.705727
 H        -2.424973         2.175275         1.385052
