19
Iteration:   833
 C        -3.970533        -0.171852         2.188713
 C        -2.566662        -0.126423         1.549720
 C        -1.993177        -1.318647         0.826466
 C        -0.459818        -1.169059         0.575214
 C         0.093593         0.131823         0.073285
 O         1.289584         0.347538         0.041788
 C        -0.971886         1.187615        -0.098300
 C        -1.939710         1.163057         1.118624
 O        -1.412239         0.533997         2.316248
 H        -4.025836        -0.972842         2.960380
 H        -4.066364         0.782771         2.922124
 H        -4.875607        -0.218422         1.551553
 H        -2.054434        -2.166163         1.493428
 H        -2.634888        -1.556941        -0.013060
 H         0.176699        -1.204931         1.454419
 H        -0.168250        -2.067010        -0.162093
 H        -0.399795         2.215716        -0.092841
 H        -1.553842         0.922914        -1.079386
 H        -2.567457         2.081880         1.220410
