19
Iteration:  2459
 C        -3.936240        -0.379940         1.440309
 C        -2.436550        -0.101225         1.553640
 C        -1.512930        -1.299438         1.610967
 C        -0.261436        -1.260428         0.612661
 C        -0.027895         0.101715        -0.074215
 O         0.780101         0.108204        -0.950386
 C        -0.416307         1.295511         0.737533
 C        -1.855875         1.217969         1.183973
 O        -2.156701         0.949123         2.598093
 H        -4.267562        -1.176756         2.155240
 H        -4.728499         0.412223         1.526815
 H        -4.193818        -0.858505         0.430544
 H        -1.160140        -1.397752         2.670780
 H        -2.046196        -2.292655         1.454876
 H         0.663894        -1.405772         1.284729
 H        -0.292321        -1.985803        -0.232134
 H         0.259229         1.103351         1.497248
 H        -0.144717         2.173327         0.267178
 H        -2.572624         1.912836         0.570965
