19
Iteration:  3370
 C        -3.757259        -0.682870         1.481059
 C        -2.366151        -0.096918         1.724964
 C        -1.275557        -1.194850         1.609819
 C        -0.611345        -1.195585         0.284869
 C         0.126320         0.126771         0.045431
 O         0.849061         0.147179        -0.930552
 C        -0.441317         1.281526         0.886803
 C        -1.941656         1.141779         1.140612
 O        -2.323453         1.065907         2.547362
 H        -4.369293        -0.607365         2.382230
 H        -4.300831        -0.170623         0.605536
 H        -3.808286        -1.743133         1.168258
 H        -0.718508        -0.874347         2.499505
 H        -1.770038        -2.199557         1.683051
 H         0.087374        -1.973140        -0.048812
 H        -1.452727        -1.201993        -0.413522
 H         0.030138         1.168018         1.839297
 H        -0.094541         2.234521         0.516427
 H        -2.681831         1.695132         0.589537
