19
Iteration:  4140charge 0 multiplicity 1
 C        -3.885539        -0.437889         1.797484
 C        -2.463862        -0.164275         1.583665
 C        -1.689978        -1.322408         0.997915
 C        -0.250393        -1.047362         0.794232
 C         0.017142         0.170572        -0.005390
 O         0.986646         0.139645        -0.766198
 C        -0.780076         1.432836         0.440930
 C        -2.059673         1.165429         1.255081
 O        -1.737703         0.643345         2.614158
 H        -4.126922        -1.250837         2.583327
 H        -4.227262         0.468304         2.236658
 H        -4.414286        -0.679013         0.864548
 H        -1.916493        -2.169641         1.545202
 H        -2.196933        -1.461217        -0.002189
 H         0.251267        -0.881214         1.743808
 H         0.120830        -1.860385         0.186716
 H         0.002147         2.116898         0.901440
 H        -1.154336         2.022568        -0.357407
 H        -2.824314         1.879513         1.139975
