19
Iteration:  2514charge 0 multiplicity 1
 C        -3.993130        -0.483158         1.445842
 C        -2.477152        -0.148329         1.577398
 C        -1.458545        -1.244474         1.718765
 C        -0.556658        -1.216308         0.484578
 C         0.094843         0.094972         0.046680
 O         0.829364         0.181999        -0.882373
 C        -0.334928         1.347544         0.718158
 C        -1.813654         1.175162         1.106045
 O        -2.101650         0.875533         2.520556
 H        -4.484723        -0.608454         2.459120
 H        -4.534465         0.242366         0.819668
 H        -4.100648        -1.539004         0.993459
 H        -0.893687        -0.972845         2.639233
 H        -1.866005        -2.303679         1.853928
 H         0.334926        -1.904205         0.771909
 H        -1.130753        -1.603157        -0.401351
 H         0.291045         1.574389         1.507130
 H        -0.252660         2.064696        -0.037470
 H        -2.405425         2.112075         0.783357
