19
Iteration:  3201charge 0 multiplicity 1
 C        -3.919658        -0.450677         1.267187
 C        -2.365563        -0.138621         1.618341
 C        -1.544081        -1.447545         1.419652
 C        -0.060544        -1.081325         1.031539
 C         0.002664         0.125879         0.061375
 O         0.368176         0.131449        -1.131939
 C        -0.287910         1.347176         0.791369
 C        -1.819314         1.219334         1.197953
 O        -2.122718         0.905402         2.543468
 H        -4.134005        -1.619486         1.567676
 H        -4.564992         0.032436         2.000723
 H        -4.216901        -0.383674         0.165429
 H        -1.645302        -2.042892         2.366545
 H        -2.069171        -2.009475         0.600487
 H         0.589898        -0.726783         1.852400
 H         0.384890        -1.991145         0.506033
 H         0.219563         1.374872         1.693708
 H        -0.012605         2.181973         0.110444
 H        -2.430858         1.993008         0.668213
