19
Iteration:  1257
 C        -3.837398        -0.162256         2.309352
 C        -2.530587        -0.116619         1.519207
 C        -2.023061        -1.360251         0.684541
 C        -0.496746        -1.307071         0.559477
 C         0.085424         0.135986         0.212177
 O         1.269578         0.430362         0.145186
 C        -0.998714         1.167576        -0.074619
 C        -1.972305         1.154463         1.081653
 O        -1.402885         0.624578         2.210835
 H        -3.947545        -1.172222         2.850011
 H        -3.853768         0.669213         2.993955
 H        -4.820448        -0.028719         1.779920
 H        -2.371545        -2.263998         1.125783
 H        -2.555772        -1.266827        -0.263244
 H        -0.103177        -1.635540         1.550358
 H        -0.218005        -2.040408        -0.210865
 H        -0.402713         2.137777        -0.369992
 H        -1.510426         0.840557        -1.003019
 H        -2.632012         2.025345         1.142074
