19
Iteration:  1535
 C        -3.998443        -0.452292         1.359693
 C        -2.487371        -0.048710         1.504823
 C        -1.367717        -1.138085         1.813222
 C        -0.525334        -1.399330         0.478473
 C         0.062789        -0.058186         0.019274
 O         0.729925         0.165653        -1.007898
 C        -0.233981         1.081937         0.982835
 C        -1.743708         1.158024         1.127090
 O        -2.244466         1.185529         2.459171
 H        -4.224349        -0.993471         2.209679
 H        -4.740412         0.489413         1.284474
 H        -4.082898        -1.127567         0.580806
 H        -0.656068        -0.529992         2.422522
 H        -1.667463        -1.987520         2.429063
 H         0.269329        -2.033751         0.880057
 H        -1.036420        -1.885864        -0.368337
 H         0.205197         1.262225         2.029488
 H         0.091908         2.025223         0.337084
 H        -2.280731         1.734854         0.311442
