19
Iteration:  4716
 C        -3.804735        -0.549796         1.385946
 C        -2.364926        -0.035115         1.751592
 C        -1.221930        -1.214697         1.797255
 C        -0.495756        -1.354280         0.416075
 C         0.011101         0.056566        -0.042963
 O         0.909844         0.053013        -0.899524
 C        -0.595919         1.307301         0.623865
 C        -2.070438         1.219948         1.133227
 O        -2.194113         1.060021         2.606002
 H        -3.789026        -0.267680         0.305133
 H        -4.102193        -1.600862         1.491224
 H        -4.591641        -0.027596         1.989189
 H        -0.390780        -1.023831         2.598562
 H        -1.753130        -2.123505         2.055435
 H         0.414353        -1.949950         0.408680
 H        -1.236841        -1.414583        -0.427094
 H        -0.127151         1.547559         1.560996
 H        -0.424128         2.332888         0.094292
 H        -2.811393         1.846540         0.615358
