19
Iteration:  1955charge 0 multiplicity 1
 C        -3.817763        -0.081668         2.115554
 C        -2.477188        -0.122046         1.548830
 C        -1.794804        -1.458971         1.241070
 C        -0.564060        -1.360897         0.239313
 C         0.028805         0.136966         0.050493
 O         1.203842         0.309265         0.231069
 C        -0.862557         1.263829        -0.053475
 C        -2.000298         1.159065         0.906328
 O        -1.626667         0.682069         2.307684
 H        -3.891476        -0.922134         2.876744
 H        -3.828798         0.923832         2.586609
 H        -4.614998        -0.174254         1.303230
 H        -1.382637        -1.730050         2.192664
 H        -2.452400        -2.137627         0.742519
 H         0.326978        -1.981298         0.487818
 H        -0.958509        -1.593843        -0.781546
 H        -0.294120         2.255632         0.100407
 H        -1.470956         1.252049        -1.020184
 H        -2.655201         2.091174         1.109799
