19
Iteration:  1714
 C        -3.866947        -0.378793         1.146697
 C        -2.370324        -0.052572         1.475032
 C        -1.453356        -1.236716         1.751683
 C        -0.312643        -1.306725         0.729401
 C         0.077954         0.033988         0.139508
 O         0.338118        -0.034402        -1.082781
 C        -0.219062         1.339944         1.028663
 C        -1.699419         1.206638         1.148584
 O        -2.213657         1.044999         2.447911
 H        -4.306958        -0.707142         2.109422
 H        -4.330945         0.478186         0.931705
 H        -4.039821        -1.171455         0.362291
 H        -0.964705        -1.185500         2.754082
 H        -2.217859        -2.090590         1.739711
 H         0.512686        -1.822058         1.120174
 H        -0.507701        -1.989871        -0.119859
 H         0.194053         1.236131         2.000371
 H         0.076978         2.191093         0.494936
 H        -2.169251         1.910924         0.492201
