19
Iteration:  2797charge 0 multiplicity 1
 C        -3.894071        -0.280326         2.066320
 C        -2.480511        -0.143541         1.559784
 C        -1.713318        -1.426430         1.318855
 C        -0.628248        -1.333701         0.188009
 C        -0.013930         0.107634         0.115207
 O         1.214987         0.402796         0.247266
 C        -0.941553         1.343384        -0.089140
 C        -1.985391         1.165874         0.981425
 O        -1.444815         0.731349         2.205292
 H        -4.008439        -1.274559         2.715809
 H        -4.428037         0.516147         2.617284
 H        -4.550641        -0.587513         1.161253
 H        -1.194001        -1.620677         2.254993
 H        -2.446536        -2.289662         1.219365
 H         0.045952        -2.284776         0.400842
 H        -1.231669        -1.260471        -0.737301
 H        -0.387123         2.345468         0.196438
 H        -1.207212         1.487652        -1.088148
 H        -2.862241         1.916918         1.125326
