19
Iteration:  1431charge 0 multiplicity 1
 C        -3.921483        -0.318274         1.749127
 C        -2.444460        -0.115267         1.666774
 C        -1.480086        -1.330520         1.508313
 C        -0.751647        -1.273463         0.143867
 C         0.095389         0.045998         0.028296
 O         1.289346        -0.002880        -0.179718
 C        -0.717849         1.333557         0.145626
 C        -2.002727         1.261853         1.128313
 O        -1.908028         0.980779         2.512253
 H        -4.267048        -1.011729         2.561209
 H        -4.460503         0.556472         1.974125
 H        -4.385889        -0.633541         0.778461
 H        -0.707593        -1.221508         2.272230
 H        -1.942783        -2.311300         1.721012
 H        -0.058188        -2.155236         0.049865
 H        -1.399759        -1.449986        -0.744431
 H         0.039848         2.216328         0.345479
 H        -1.263279         1.472126        -0.782848
 H        -2.825798         1.929527         0.856928
