19
Iteration:  4079charge 0 multiplicity 1
 C        -3.938436        -0.323352         1.576557
 C        -2.397352        -0.176736         1.524680
 C        -1.542316        -1.353087         0.972943
 C        -0.075389        -0.981384         1.020335
 C         0.052314         0.200807         0.114530
 O         0.552305         0.033981        -1.039855
 C        -0.653259         1.469698         0.597486
 C        -1.959911         1.209587         1.333529
 O        -1.812253         0.539168         2.621224
 H        -4.282093        -0.550445         2.549926
 H        -4.462274         0.619223         1.256001
 H        -4.325908        -1.164061         0.920478
 H        -1.634695        -2.316154         1.633928
 H        -1.678773        -1.692587        -0.019921
 H         0.053549        -0.883913         2.139095
 H         0.684437        -1.667417         0.616023
 H        -0.101268         1.911300         1.422737
 H        -0.951179         2.329470        -0.132585
 H        -2.836461         1.967738         1.397569
