19
Iteration:  4745charge 0 multiplicity 1
 C        -3.778483        -0.608128         1.407789
 C        -2.433198        -0.134567         1.679836
 C        -1.346086        -1.182272         1.891803
 C        -0.559139        -1.210622         0.476659
 C         0.000471         0.070631        -0.049976
 O         0.783989         0.132131        -0.943069
 C        -0.385241         1.349704         0.657786
 C        -1.820874         1.150933         1.191970
 O        -2.249145         1.003024         2.495856
 H        -3.879450        -1.010643         0.361078
 H        -4.074634        -1.488870         1.946312
 H        -4.486199         0.201246         1.550775
 H        -0.745595        -0.947102         2.790644
 H        -1.656034        -2.206551         2.227501
 H         0.244971        -1.922061         0.384788
 H        -1.287797        -1.304322        -0.352173
 H         0.307784         1.606101         1.479095
 H        -0.483323         2.247277        -0.044127
 H        -2.502535         1.724227         0.513067
