19
Iteration:  3330
 C        -3.707612        -0.595028         1.208127
 C        -2.380350        -0.112162         1.653264
 C        -1.276937        -1.098049         1.802187
 C        -0.617946        -1.283187         0.461816
 C        -0.063883         0.049809        -0.038185
 O         0.726398         0.240200        -0.928173
 C        -0.384957         1.297003         0.823261
 C        -1.863062         1.195460         1.205217
 O        -2.276473         0.907145         2.597853
 H        -4.112661        -1.136455         2.113408
 H        -4.328395         0.184483         0.938631
 H        -3.587485        -1.319736         0.366656
 H        -0.444305        -0.791274         2.543166
 H        -1.605045        -2.038798         2.206987
 H         0.118389        -2.131945         0.426251
 H        -1.365507        -1.576192        -0.324193
 H         0.393809         1.211381         1.702480
 H        -0.168705         2.277573         0.266005
 H        -2.446246         1.810306         0.432494
