19
Iteration:  1771charge 0 multiplicity 1
 C        -3.838975        -0.369494         1.272972
 C        -2.428956        -0.078213         1.627460
 C        -1.401888        -1.206454         1.794536
 C        -0.572977        -1.425236         0.495947
 C         0.020081        -0.018396         0.022397
 O         0.853040         0.055220        -0.899148
 C        -0.416346         1.276071         0.715579
 C        -1.855289         1.241685         1.177408
 O        -2.167648         1.078339         2.545790
 H        -4.502208        -0.770375         2.079502
 H        -4.404838         0.379425         0.706090
 H        -3.825070        -1.227700         0.585650
 H        -0.635582        -0.784441         2.533301
 H        -2.016844        -2.069672         2.331383
 H         0.285166        -2.000502         0.815535
 H        -1.196775        -1.883698        -0.280976
 H         0.147900         1.442502         1.589921
 H        -0.109816         2.160690         0.117481
 H        -2.647252         1.865678         0.671521
