19
Iteration:  4164
 C        -3.980414        -0.395293         1.978664
 C        -2.522374        -0.161292         1.658970
 C        -1.761925        -1.468599         0.997533
 C        -0.241507        -1.208709         0.685518
 C         0.112362         0.152255         0.110565
 O         1.024640         0.363458        -0.638675
 C        -0.753335         1.401473         0.308117
 C        -2.064046         1.168189         1.142004
 O        -1.682235         0.687147         2.465290
 H        -4.233806        -1.434922         2.314975
 H        -4.303654         0.272502         2.794882
 H        -4.553664        -0.252530         1.006610
 H        -1.959473        -2.272529         1.735526
 H        -2.374262        -1.688949         0.112641
 H         0.322802        -1.270702         1.646319
 H         0.064085        -1.837699        -0.126224
 H        -0.114963         2.166072         0.886486
 H        -0.923271         1.947251        -0.590502
 H        -2.715628         1.989148         1.192219
