19
Iteration:  2970
 C        -3.895407        -0.318753         1.913336
 C        -2.416736        -0.056021         1.673059
 C        -1.762737        -1.336791         1.166529
 C        -0.506094        -1.253496         0.284800
 C         0.008482         0.118332         0.127101
 O         1.227409         0.313727         0.047138
 C        -1.004227         1.226425        -0.024396
 C        -1.983387         1.207360         1.107333
 O        -1.534158         0.719837         2.430277
 H        -4.206997        -1.168956         2.619167
 H        -4.488253         0.501644         2.246205
 H        -4.408548        -0.571508         0.977126
 H        -1.427546        -1.852783         2.147523
 H        -2.579525        -1.886674         0.614049
 H         0.296083        -2.037816         0.543449
 H        -0.633256        -1.544605        -0.777172
 H        -0.510219         2.202629        -0.188256
 H        -1.525363         1.037345        -1.075125
 H        -2.720173         2.028787         1.085708
