19
Iteration:  4779
 C        -3.751447        -0.583999         1.463282
 C        -2.410776        -0.087392         1.608786
 C        -1.313143        -1.116771         1.720617
 C        -0.413999        -1.374623         0.424490
 C         0.027192         0.037407        -0.002685
 O         0.701523         0.128030        -1.018382
 C        -0.459809         1.247857         0.908734
 C        -1.928315         1.272278         1.159334
 O        -2.257915         1.056622         2.511876
 H        -3.643439        -1.587283         0.931317
 H        -4.249755        -0.639025         2.388079
 H        -4.364630         0.002163         0.768340
 H        -0.547364        -0.582628         2.376623
 H        -1.834650        -1.957028         2.162538
 H         0.376178        -2.068857         0.494290
 H        -0.915050        -1.852734        -0.449380
 H        -0.035532         1.191569         1.903332
 H        -0.104079         2.261247         0.381177
 H        -2.657240         1.833821         0.523778
