19
Iteration:  3246
 C        -3.923233        -0.438569         1.343723
 C        -2.486242        -0.074995         1.479218
 C        -1.379282        -1.327596         1.631698
 C        -0.054477        -1.267828         0.747100
 C         0.092832         0.114155         0.122966
 O         0.404952         0.147293        -1.043014
 C        -0.365269         1.333483         0.874383
 C        -1.888504         1.223080         1.090706
 O        -2.152361         0.902533         2.495736
 H        -4.265234        -1.524623         1.362937
 H        -4.610267        -0.006184         2.137239
 H        -4.291498        -0.136917         0.330270
 H        -1.024679        -1.442409         2.651182
 H        -1.895233        -2.309673         1.348191
 H         0.812886        -1.486488         1.394588
 H        -0.031568        -1.935317        -0.174137
 H         0.030716         1.215994         1.834590
 H        -0.114932         2.297038         0.433463
 H        -2.486483         2.080301         0.722729
