19
Iteration:  3341charge 0 multiplicity 1
 C        -3.749005        -0.689475         1.271131
 C        -2.373088        -0.147599         1.667534
 C        -1.256202        -1.157488         1.839273
 C        -0.735479        -1.292388         0.391454
 C        -0.009345         0.130261        -0.033485
 O         0.797209         0.265886        -0.946419
 C        -0.343641         1.286377         0.835461
 C        -1.777980         1.179377         1.159765
 O        -2.303298         0.985133         2.569887
 H        -4.400904        -0.987606         2.147154
 H        -4.311005         0.053438         0.825025
 H        -3.699496        -1.610875         0.641333
 H        -0.771890        -0.786420         2.808843
 H        -1.782216        -2.067620         2.083851
 H         0.149183        -1.914542         0.131892
 H        -1.664414        -1.625364        -0.116207
 H         0.425079         1.362768         1.750150
 H        -0.211998         2.244847         0.195766
 H        -2.572574         1.900288         0.753553
