19
Iteration:  3303
 C        -3.771961        -0.550928         1.145956
 C        -2.410701        -0.111022         1.662779
 C        -1.231782        -1.203046         1.756349
 C        -0.359348        -1.321483         0.492634
 C         0.022066         0.050348        -0.010445
 O         0.647245         0.113657        -1.045786
 C        -0.440354         1.348016         0.885343
 C        -2.014621         1.237675         1.279739
 O        -2.264434         1.016695         2.650242
 H        -4.077986        -1.439832         1.638648
 H        -4.447698         0.382838         1.426700
 H        -3.786264        -0.581743         0.059685
 H        -0.558132        -1.057066         2.583584
 H        -1.763718        -2.236726         1.822905
 H         0.515820        -1.953612         0.601551
 H        -0.912706        -1.794849        -0.300270
 H         0.221597         1.329130         1.722369
 H        -0.312686         2.281383         0.412321
 H        -2.408234         1.880623         0.587802
