19
Iteration:  1251
 C        -3.858217        -0.191125         2.300903
 C        -2.509977        -0.141550         1.491180
 C        -2.049950        -1.319894         0.709744
 C        -0.497833        -1.356558         0.606512
 C         0.106310         0.105249         0.219094
 O         1.297644         0.452775         0.068340
 C        -0.990290         1.185904        -0.017852
 C        -2.021419         1.187311         1.054122
 O        -1.399569         0.621805         2.213911
 H        -4.121636        -1.050760         2.915805
 H        -3.825200         0.652268         3.032563
 H        -4.723498         0.025493         1.649795
 H        -2.328581        -2.363358         1.104856
 H        -2.487155        -1.135431        -0.304279
 H        -0.152341        -1.614516         1.636869
 H        -0.188096        -2.057433        -0.169981
 H        -0.518583         2.077789        -0.195216
 H        -1.311667         0.889657        -1.049087
 H        -2.684989         2.036064         1.287694
