19
Iteration:   541charge 0 multiplicity 1
 C        -3.891117        -0.518139         1.463168
 C        -2.450444         0.003055         1.573810
 C        -1.455773        -1.189063         1.676102
 C        -0.614954        -1.247746         0.416897
 C         0.029401         0.051816        -0.036146
 O         0.957451        -0.011714        -0.825744
 C        -0.400080         1.260817         0.719255
 C        -1.822552         1.264311         1.200686
 O        -2.185455         0.999286         2.559751
 H        -4.350496        -0.848556         2.356942
 H        -4.501904         0.317635         0.893191
 H        -3.983125        -1.356635         0.862422
 H        -0.817985        -1.006819         2.548877
 H        -1.994302        -2.143369         1.899583
 H         0.163450        -1.994321         0.374783
 H        -1.328049        -1.572814        -0.429671
 H         0.301079         1.302425         1.645204
 H        -0.119792         2.143605         0.032748
 H        -2.324201         2.144216         0.681143
