19
Iteration:  3357
 C        -3.774138        -0.714377         1.358177
 C        -2.407483        -0.171590         1.691763
 C        -1.311967        -1.244524         1.791116
 C        -0.669044        -1.179351         0.336309
 C         0.049347         0.085136        -0.015470
 O         0.847895         0.220637        -0.965913
 C        -0.363393         1.327159         0.864254
 C        -1.877912         1.211173         1.199917
 O        -2.305035         1.060634         2.546409
 H        -4.318261        -0.743904         2.284895
 H        -4.439136        -0.062924         0.631709
 H        -3.584622        -1.735290         1.045393
 H        -0.412575        -1.152151         2.351311
 H        -1.625695        -2.231294         2.225434
 H        -0.123314        -2.108069         0.213721
 H        -1.388488        -1.126767        -0.552643
 H         0.191144         1.255380         1.735191
 H        -0.160244         2.246175         0.395696
 H        -2.447063         1.693179         0.441533
