19
Iteration:   955
 C        -3.949188        -0.253039         1.518729
 C        -2.453569        -0.130123         1.547199
 C        -1.590580        -1.387466         1.085215
 C        -0.030053        -1.279282         0.964324
 C         0.135940         0.059279         0.125647
 O         0.483192         0.111453        -1.052751
 C        -0.451629         1.378588         0.764290
 C        -1.900902         1.272303         1.219158
 O        -1.985494         0.796242         2.578723
 H        -4.217024        -0.942394         2.361417
 H        -4.490938         0.688216         1.497845
 H        -4.313175        -0.751433         0.587225
 H        -1.893021        -2.033561         1.871538
 H        -1.984795        -1.808860         0.171445
 H         0.254124        -1.012151         1.992146
 H         0.533479        -2.146132         0.544072
 H         0.044091         1.604047         1.756872
 H        -0.249269         2.194427        -0.092893
 H        -2.640552         2.041558         0.965974
