19
Iteration:  3481charge 0 multiplicity 1
 C        -3.963456        -0.534062         1.710144
 C        -2.419940        -0.154525         1.656048
 C        -1.540440        -1.310128         1.486265
 C        -0.512036        -1.250074         0.280583
 C         0.082633         0.098649         0.087312
 O         1.155154         0.333662        -0.419739
 C        -0.826351         1.334571         0.271525
 C        -2.038514         1.211709         1.102980
 O        -1.797391         0.847126         2.531538
 H        -3.977154        -1.639753         1.977673
 H        -4.396185         0.032449         2.500343
 H        -4.385445        -0.315817         0.653117
 H        -0.900219        -1.306535         2.439667
 H        -2.124384        -2.253148         1.523071
 H         0.286349        -2.011679         0.354784
 H        -1.235895        -1.518349        -0.563653
 H        -0.103559         1.993693         0.615724
 H        -1.234914         1.713194        -0.696120
 H        -2.882384         1.952049         1.055599
