19
Iteration:  4066charge 0 multiplicity 1
 C        -3.841504        -0.354439         1.521102
 C        -2.359380        -0.256642         1.486488
 C        -1.546311        -1.496828         0.967655
 C        -0.094310        -1.003810         1.050498
 C        -0.022553         0.250996         0.054474
 O         0.457701         0.025651        -0.991631
 C        -0.609975         1.613476         0.660245
 C        -1.915901         1.175269         1.330523
 O        -1.858667         0.641012         2.659411
 H        -4.192430        -0.578047         2.573003
 H        -4.304594         0.555212         1.199048
 H        -4.230905        -1.141676         0.763071
 H        -1.852996        -2.421177         1.631604
 H        -1.977494        -1.633920        -0.026442
 H         0.318303        -0.717437         2.066517
 H         0.512742        -1.801325         0.610501
 H         0.163906         1.932988         1.390867
 H        -0.554513         2.336434        -0.136458
 H        -2.660798         1.937979         1.162987
