19
Iteration:   906
 C        -4.060958        -0.306221         1.829271
 C        -2.562964        -0.112145         1.527561
 C        -1.799045        -1.361823         0.999121
 C        -0.323861        -1.102597         0.863128
 C         0.139436         0.106635         0.016930
 O         1.079777         0.059734        -0.779879
 C        -0.646262         1.459375         0.394209
 C        -1.978009         1.298078         1.236438
 O        -1.718910         0.557703         2.567578
 H        -4.180755        -1.152057         2.486166
 H        -4.593420         0.586872         2.135385
 H        -4.596477        -0.520040         0.895061
 H        -2.000811        -2.148190         1.817252
 H        -2.380725        -1.688136         0.097562
 H        -0.090272        -0.855035         1.925811
 H         0.308535        -1.872695         0.454371
 H         0.104057         2.033072         1.070833
 H        -0.829241         2.020691        -0.460964
 H        -2.582418         2.211060         1.344489
