19
Iteration:  3434
 C        -3.931901        -0.496205         1.660089
 C        -2.454419        -0.219558         1.684469
 C        -1.400173        -1.290127         1.531363
 C        -0.439431        -1.199479         0.299969
 C         0.131193         0.154427         0.056911
 O         1.097772         0.202815        -0.736317
 C        -0.684165         1.347120         0.524773
 C        -2.038051         1.211438         1.160200
 O        -2.082124         0.880575         2.573616
 H        -4.294851        -0.915997         2.599812
 H        -4.564015         0.437515         1.307511
 H        -4.066383        -1.292531         0.897268
 H        -0.735965        -1.258944         2.392877
 H        -1.886181        -2.328745         1.476621
 H         0.247660        -2.050736         0.438149
 H        -1.274922        -1.517593        -0.461665
 H        -0.195689         1.982560         1.266201
 H        -0.735409         1.928961        -0.378478
 H        -2.797754         1.879309         0.831247
