19
Iteration:   652
 C        -3.893955        -0.310981         2.031934
 C        -2.476465        -0.069829         1.566148
 C        -1.708286        -1.318825         1.251977
 C        -0.690182        -1.293131         0.093014
 C         0.129513         0.022336         0.122176
 O         1.362473         0.112590         0.016423
 C        -0.885931         1.243381         0.099379
 C        -2.022114         1.198184         1.064394
 O        -1.712691         0.974391         2.413490
 H        -3.794487        -1.246220         2.587016
 H        -4.391858         0.456916         2.668209
 H        -4.522611        -0.418453         1.171245
 H        -1.062064        -1.543403         2.125810
 H        -2.447380        -2.148370         1.152627
 H        -0.033941        -2.198202         0.173967
 H        -1.157196        -1.279095        -0.926595
 H        -0.333308         2.270164         0.297017
 H        -1.135748         1.315193        -0.977327
 H        -2.786364         2.032961         0.898025
