19
Iteration:  3748charge 0 multiplicity 1
 C        -4.028829        -0.458880         2.050421
 C        -2.578055        -0.111586         1.601955
 C        -1.790040        -1.425064         1.133609
 C        -0.299000        -1.231237         0.457864
 C         0.040657         0.173951        -0.032349
 O         1.240598         0.454726        -0.205923
 C        -0.957441         1.385902         0.082826
 C        -2.053371         1.180068         1.081756
 O        -1.540248         0.612212         2.414351
 H        -4.073509        -1.460683         2.429186
 H        -4.183731         0.283077         2.848061
 H        -4.730068        -0.295507         1.304337
 H        -1.469577        -2.009820         2.003520
 H        -2.440491        -2.061038         0.657099
 H         0.556893        -1.439578         1.162406
 H        -0.169243        -1.981507        -0.410974
 H        -0.402401         2.278884         0.509911
 H        -1.340346         1.739236        -0.800982
 H        -2.801229         2.005877         1.230762
