19
Iteration:  2130
 C        -3.838835        -0.238557         2.067387
 C        -2.451910        -0.122184         1.619998
 C        -1.895324        -1.364865         0.956196
 C        -0.475167        -1.303931         0.432593
 C         0.055662         0.105284         0.161543
 O         1.236172         0.244046        -0.068279
 C        -0.891640         1.201340         0.045268
 C        -1.984249         1.157943         1.068326
 O        -1.626623         0.863928         2.427057
 H        -3.996817        -0.904496         2.962213
 H        -4.291872         0.818993         2.325134
 H        -4.314905        -0.628148         1.143933
 H        -2.071313        -2.336430         1.445690
 H        -2.547228        -1.628344         0.102572
 H         0.199101        -1.654826         1.234080
 H        -0.289526        -1.798190        -0.510370
 H        -0.366707         2.183561         0.042991
 H        -1.399919         1.186348        -0.897527
 H        -2.733104         2.100010         0.993209
