19
Iteration:  3088charge 0 multiplicity 1
 C        -3.961515        -0.412555         1.726435
 C        -2.534790        -0.073047         1.394771
 C        -1.736546        -1.326240         1.042904
 C        -0.256462        -1.099398         0.940828
 C         0.131298         0.138862         0.090740
 O         0.926580         0.033301        -0.869487
 C        -0.563887         1.409652         0.481141
 C        -1.956217         1.249962         1.284997
 O        -1.914125         0.706888         2.582791
 H        -3.871387        -1.011403         2.710518
 H        -4.705885         0.453320         1.645836
 H        -4.214802        -1.205653         0.986378
 H        -1.933870        -2.039500         1.902148
 H        -2.060887        -1.775041         0.142586
 H         0.244705        -0.901793         1.944607
 H         0.305802        -1.962650         0.602335
 H         0.053797         2.086258         1.067186
 H        -0.698961         2.042892        -0.364601
 H        -2.642396         2.101523         1.175964
