19
Iteration:  4558charge 0 multiplicity 1
 C        -3.894901        -0.556954         1.738215
 C        -2.360308        -0.154000         1.676356
 C        -1.387770        -1.323031         1.578342
 C        -0.716418        -1.177873         0.196689
 C         0.068099         0.098019        -0.060399
 O         1.253300         0.165766        -0.484593
 C        -0.675382         1.327059         0.328570
 C        -1.974640         1.181263         1.181787
 O        -2.085107         1.041344         2.586195
 H        -3.856233        -1.595170         1.689599
 H        -4.389877        -0.392604         2.763735
 H        -4.515004        -0.091089         0.975923
 H        -0.803311        -1.607403         2.440777
 H        -1.994632        -2.326976         1.490570
 H        -0.139437        -2.127046        -0.082673
 H        -1.516937        -1.280644        -0.592719
 H        -0.082816         2.231250         0.692629
 H        -1.154365         1.765145        -0.540717
 H        -2.790264         1.672543         0.652279
