19
Iteration:   722charge 0 multiplicity 1
 C        -3.690100        -0.192910         2.342510
 C        -2.405555        -0.074892         1.521399
 C        -1.781722        -1.379172         1.045187
 C        -0.649628        -1.334769         0.008100
 C        -0.072728         0.050744         0.252918
 O         1.070620         0.252028         0.620109
 C        -0.979603         1.227777        -0.189151
 C        -1.991478         1.275047         0.919232
 O        -1.421458         0.759568         2.096122
 H        -3.306708        -0.596850         3.307773
 H        -4.401353         0.668268         2.239518
 H        -4.348920        -0.980590         1.847880
 H        -1.451479        -1.983572         1.888181
 H        -2.558711        -1.888157         0.546144
 H         0.217172        -2.052099         0.156990
 H        -1.135181        -1.452058        -1.051459
 H        -0.244189         2.137435        -0.145314
 H        -1.430187         1.307197        -1.200075
 H        -2.716819         2.078691         0.953846
