19
Iteration:  1222charge 0 multiplicity 1
 C        -3.920375        -0.220322         2.150646
 C        -2.518282        -0.137605         1.483411
 C        -1.914259        -1.292545         0.766206
 C        -0.400558        -1.187149         0.732625
 C         0.061235         0.119098         0.141470
 O         1.199446         0.218218        -0.223425
 C        -0.875847         1.282059         0.122572
 C        -1.966167         1.189512         1.092670
 O        -1.585888         0.607622         2.386959
 H        -3.952859        -1.154532         2.675420
 H        -4.050762         0.541669         3.028956
 H        -4.715788        -0.194913         1.421892
 H        -2.132227        -2.278544         1.062692
 H        -2.315019        -1.194638        -0.258154
 H        -0.032855        -1.330304         1.717241
 H         0.123995        -1.973853         0.071722
 H        -0.213811         2.234632         0.339859
 H        -1.226740         1.391813        -0.961669
 H        -2.730780         1.986045         1.195301
