19
Iteration:  2031
 C        -3.683781        -0.219975         2.433972
 C        -2.519738        -0.036545         1.393782
 C        -1.960601        -1.322769         0.764974
 C        -0.439913        -1.421169         0.362840
 C         0.006313         0.030661         0.043030
 O         1.064103         0.374160         0.492989
 C        -0.990855         1.075675        -0.223406
 C        -1.883541         1.268021         0.981104
 O        -1.482775         0.812029         2.273835
 H        -3.369293        -0.996624         3.239526
 H        -3.911280         0.823572         2.974025
 H        -4.667636        -0.492838         1.861581
 H        -2.226030        -2.238987         1.363425
 H        -2.434027        -1.591122        -0.209246
 H         0.181024        -1.750993         1.221814
 H        -0.499435        -2.005224        -0.538711
 H        -0.275815         1.995172        -0.453956
 H        -1.614930         0.908065        -1.149988
 H        -2.658277         2.174381         1.146646
