19
Iteration:  4251charge 0 multiplicity 1
 C        -3.752667        -0.320646         2.151041
 C        -2.390452        -0.123647         1.560692
 C        -1.904382        -1.332627         0.816029
 C        -0.447135        -1.333219         0.555077
 C        -0.001841         0.123236         0.198753
 O         1.115901         0.573987        -0.078983
 C        -1.074225         1.207344        -0.045185
 C        -2.016493         1.200598         1.127426
 O        -1.435424         0.586637         2.395363
 H        -3.846760        -1.293394         2.676695
 H        -4.004067         0.472559         2.927445
 H        -4.529604        -0.267612         1.317628
 H        -2.150364        -2.245554         1.308322
 H        -2.470825        -1.377313        -0.171985
 H         0.100944        -1.666752         1.498989
 H        -0.040838        -1.985025        -0.208968
 H        -0.429224         2.131233        -0.339167
 H        -1.658481         0.895045        -0.913276
 H        -2.649004         2.006277         1.270049
