19
Iteration:  1437
 C        -3.939998        -0.335494         1.708401
 C        -2.443936        -0.073981         1.617569
 C        -1.462209        -1.258777         1.511297
 C        -0.761392        -1.286372         0.192593
 C         0.097560        -0.024137         0.024967
 O         1.302202         0.030130        -0.235008
 C        -0.745174         1.310939         0.179715
 C        -1.953240         1.232131         1.152106
 O        -1.923663         0.944573         2.537402
 H        -4.243739        -0.982235         2.517497
 H        -4.392594         0.735309         1.993333
 H        -4.311751        -0.735002         0.775622
 H        -0.771212        -0.946963         2.345954
 H        -1.981530        -2.215998         1.742365
 H        -0.068697        -2.094826         0.077386
 H        -1.511033        -1.336670        -0.622629
 H        -0.078973         2.067592         0.416088
 H        -1.193236         1.571157        -0.820750
 H        -2.846582         1.851082         0.891018
