19
Iteration:  1894
 C        -3.875183        -0.403689         1.841718
 C        -2.458536        -0.143573         1.643945
 C        -1.631098        -1.363360         1.372158
 C        -0.736727        -1.145712         0.233678
 C         0.121379         0.055964         0.094731
 O         1.293294         0.022282        -0.156275
 C        -0.730948         1.370070         0.145415
 C        -1.991498         1.169678         1.036945
 O        -1.806924         0.997660         2.492752
 H        -4.149235        -0.765728         2.807771
 H        -4.512563         0.542615         1.645655
 H        -4.234221        -1.131118         1.144959
 H        -1.096354        -1.640837         2.373915
 H        -2.428023        -2.200416         1.257037
 H        -0.240753        -2.116011         0.006956
 H        -1.513938        -0.852082        -0.505498
 H        -0.064663         2.153054         0.363957
 H        -0.999100         1.580541        -0.899736
 H        -2.749383         1.922413         0.795019
