19
Iteration:  1289
 C        -3.724158        -0.206349         2.267494
 C        -2.435495        -0.074394         1.568694
 C        -1.959443        -1.267299         0.849111
 C        -0.566002        -1.296061         0.273668
 C         0.022574         0.132206         0.092854
 O         1.152886         0.374895         0.549658
 C        -1.057722         1.174543        -0.323432
 C        -1.949852         1.243207         0.999341
 O        -1.385034         0.546980         2.275995
 H        -3.491210        -0.910248         3.107581
 H        -3.882532         0.773834         2.719114
 H        -4.557275        -0.527512         1.608359
 H        -2.156399        -2.037127         1.541190
 H        -2.728525        -1.465061         0.101418
 H         0.135499        -1.850114         0.901272
 H        -0.603775        -2.025291        -0.583889
 H        -0.560104         2.218090        -0.647253
 H        -1.759418         0.711996        -1.080623
 H        -2.473556         2.176787         1.194535
