19
Iteration:   529
 C        -3.910753        -0.584739         1.347666
 C        -2.466054        -0.031194         1.641583
 C        -1.438546        -1.114814         1.709845
 C        -0.622931        -1.289041         0.389562
 C         0.078246        -0.037363         0.053235
 O         0.840146         0.021498        -0.883020
 C        -0.284524         1.256472         0.785865
 C        -1.862375         1.307605         1.117974
 O        -2.133882         1.058897         2.583226
 H        -4.302886        -0.955763         2.256965
 H        -4.771852         0.167433         0.984345
 H        -3.679495        -1.297918         0.669939
 H        -0.768576        -0.876389         2.554519
 H        -1.993135        -2.096375         1.967794
 H         0.067141        -2.106891         0.369542
 H        -1.319759        -1.373468        -0.515697
 H         0.276569         1.226837         1.795621
 H         0.100154         2.217209         0.234727
 H        -2.694801         2.014877         0.703195
