19
Iteration:  2060
 C        -3.683134        -0.145308         2.315198
 C        -2.377482        -0.086036         1.593876
 C        -2.088899        -1.307830         0.735140
 C        -0.568435        -1.319193         0.498034
 C         0.018062         0.165579         0.288818
 O         1.232376         0.383857         0.378079
 C        -1.096207         1.134678        -0.252337
 C        -2.046457         1.155985         0.897220
 O        -1.302065         0.616599         2.189168
 H        -3.732484        -0.451627         3.326524
 H        -4.185399         0.714978         2.295180
 H        -4.290070        -0.836826         1.735668
 H        -2.550480        -2.225125         1.143271
 H        -2.703562        -1.303174        -0.176631
 H        -0.079090        -1.796613         1.353529
 H        -0.358272        -1.883672        -0.414047
 H        -0.693359         2.153601        -0.462444
 H        -1.394450         0.778499        -1.191211
 H        -2.613935         1.954641         1.204229
