19
Iteration:   573
 C        -3.990595        -0.266515         1.628602
 C        -2.493582        -0.123033         1.683574
 C        -1.437918        -1.307994         1.572526
 C        -0.546103        -1.360346         0.306697
 C         0.113442         0.041347         0.047310
 O         1.109602         0.071080        -0.693273
 C        -0.562952         1.298487         0.550214
 C        -1.913297         1.189135         1.050734
 O        -2.111101         0.962262         2.587541
 H        -4.543747        -0.316477         2.540385
 H        -4.304717         0.832690         1.264076
 H        -4.203481        -1.023591         0.985753
 H        -0.778008        -1.209713         2.461023
 H        -1.980089        -2.333878         1.780274
 H         0.204299        -2.109286         0.257805
 H        -1.201313        -1.427703        -0.597115
 H         0.111770         1.744050         1.363010
 H        -0.410078         2.029613        -0.343252
 H        -2.758439         1.907856         0.684146
