19
Iteration:   811
 C        -3.721215        -0.169047         2.308531
 C        -2.474528        -0.128301         1.562949
 C        -2.032793        -1.432710         0.847676
 C        -0.573038        -1.316072         0.504616
 C         0.030943         0.202651         0.164623
 O         1.221099         0.382374         0.266079
 C        -0.938710         1.297576        -0.175757
 C        -1.940767         1.194969         0.914709
 O        -1.478564         0.549164         2.197714
 H        -3.709792        -0.995994         3.065152
 H        -4.012159         0.803364         2.982441
 H        -4.627688        -0.297010         1.684948
 H        -2.256098        -2.206228         1.556514
 H        -2.681187        -1.613427         0.003278
 H         0.151788        -1.696862         1.231090
 H        -0.504427        -1.946738        -0.522207
 H        -0.356642         2.313497        -0.035610
 H        -1.368069         1.130876        -1.250810
 H        -2.549371         2.097146         1.128974
