19
Iteration:  1335
 C        -3.662103        -0.122577         2.287589
 C        -2.347303        -0.104390         1.551429
 C        -1.884016        -1.434109         0.964867
 C        -0.651822        -1.275737         0.003559
 C         0.017922         0.083419         0.200668
 O         1.139626         0.258638         0.609115
 C        -1.015122         1.267938        -0.133506
 C        -2.025836         1.150306         0.891806
 O        -1.455258         0.767789         2.203020
 H        -3.400998        -0.479256         3.352844
 H        -4.159505         0.770519         2.336535
 H        -4.370241        -0.886544         1.805685
 H        -1.716827        -2.133001         1.765644
 H        -2.784716        -1.768191         0.511353
 H         0.070596        -2.162381         0.126583
 H        -0.909981        -1.346213        -1.031211
 H        -0.473364         2.273133        -0.126659
 H        -1.384345         0.980502        -1.113421
 H        -2.836003         1.837389         0.988003
