19
Iteration:  3012
 C        -4.041495        -0.285078         1.908321
 C        -2.480816        -0.149297         1.586119
 C        -1.757644        -1.424528         1.270977
 C        -0.407687        -1.258215         0.487999
 C         0.099632         0.150948         0.098492
 O         1.235914         0.270988        -0.339786
 C        -0.770248         1.404180         0.147762
 C        -1.966065         1.164079         1.059059
 O        -1.814424         0.721958         2.476564
 H        -4.154190        -1.294310         2.401338
 H        -4.200884         0.405727         2.751050
 H        -4.569180        -0.168478         0.987748
 H        -1.368384        -1.902655         2.229265
 H        -2.340967        -2.103214         0.662541
 H         0.519771        -1.856905         0.805928
 H        -0.641839        -1.812307        -0.420514
 H        -0.144871         2.224782         0.269911
 H        -1.149223         1.667032        -0.832072
 H        -2.649888         2.014019         1.039016
