19
Iteration:  4285
 C        -3.790866        -0.241760         2.420598
 C        -2.566114        -0.204836         1.542768
 C        -1.936366        -1.356603         0.709627
 C        -0.464259        -1.118184         0.434213
 C         0.099362         0.201671         0.063689
 O         1.280476         0.474846         0.158244
 C        -1.092752         1.182423        -0.135660
 C        -2.050523         1.113249         1.089013
 O        -1.415295         0.530605         2.298310
 H        -3.546917        -0.615829         3.405837
 H        -4.236702         0.850131         2.483825
 H        -4.614754        -0.935490         2.014350
 H        -1.903731        -2.322122         1.266322
 H        -2.475015        -1.539262        -0.261455
 H        -0.060160        -1.359836         1.473261
 H        -0.153559        -1.863318        -0.306794
 H        -0.633132         2.220298        -0.375504
 H        -1.712682         0.931350        -0.996011
 H        -2.719565         1.920622         1.291788
