19
Iteration:  2343
 C        -3.956964        -0.355025         1.388592
 C        -2.444362        -0.008885         1.442025
 C        -1.614327        -1.368771         1.298122
 C        -0.108807        -1.133273         0.965738
 C         0.093003         0.079633         0.076651
 O         0.521453        -0.071567        -1.036402
 C        -0.435757         1.488395         0.673558
 C        -1.791691         1.337105         1.296810
 O        -2.034391         0.690891         2.616335
 H        -4.198344        -1.108295         2.181367
 H        -4.491072         0.505772         1.562787
 H        -4.250788        -0.821238         0.405312
 H        -1.648114        -1.806509         2.276901
 H        -2.150588        -2.055042         0.696523
 H         0.415070        -0.911478         1.890799
 H         0.317053        -1.984757         0.415489
 H         0.348261         1.745533         1.437504
 H        -0.439991         2.226891        -0.210343
 H        -2.464238         2.105040         1.132578
