19
Iteration:  4914
 C        -3.861081        -0.566095         1.295467
 C        -2.383090        -0.138817         1.626576
 C        -1.296108        -1.248315         1.805370
 C        -0.435441        -1.308139         0.490122
 C         0.026769         0.129545         0.036582
 O         0.587489         0.180789        -1.064446
 C        -0.369990         1.374399         0.792991
 C        -1.886262         1.162862         1.204774
 O        -2.183583         0.992005         2.607668
 H        -4.462999        -0.337681         2.122342
 H        -4.290450         0.217953         0.543426
 H        -3.910927        -1.568802         0.898309
 H        -0.556712        -1.016781         2.664877
 H        -1.675392        -2.281096         2.083054
 H         0.476886        -1.864656         0.696631
 H        -1.022152        -1.711376        -0.348896
 H         0.370459         1.322405         1.658749
 H        -0.193594         2.249169         0.131442
 H        -2.617818         1.653056         0.606354
