19
Iteration:  1488
 C        -3.858491        -0.411652         1.480451
 C        -2.413130        -0.053376         1.657196
 C        -1.463601        -1.335304         1.642375
 C        -0.641433        -1.298880         0.355241
 C         0.084427         0.060490         0.006414
 O         1.039411        -0.096598        -0.713064
 C        -0.491957         1.398188         0.617841
 C        -1.931033         1.152947         1.119473
 O        -2.146372         1.150748         2.563689
 H        -4.184238        -0.856997         2.466858
 H        -4.357955         0.458494         1.381474
 H        -4.036930        -1.164950         0.681746
 H        -0.957024        -1.300004         2.576219
 H        -2.128114        -2.157095         1.626611
 H         0.261370        -2.027024         0.407907
 H        -1.271655        -1.470188        -0.530314
 H         0.315515         1.770565         1.441946
 H        -0.526168         2.240650        -0.124572
 H        -2.684306         1.777308         0.692303
