19
Iteration:  2980
 C        -3.949832        -0.339691         1.858418
 C        -2.468371        -0.081180         1.620957
 C        -1.755219        -1.286652         1.172401
 C        -0.528493        -1.245552         0.348458
 C         0.074456         0.142389         0.140237
 O         1.245062         0.285996        -0.061219
 C        -0.964302         1.221456         0.054009
 C        -2.039584         1.221564         1.130384
 O        -1.506893         0.715097         2.394192
 H        -3.934152        -1.318906         2.447986
 H        -4.408992         0.496897         2.394415
 H        -4.357706        -0.523365         0.870736
 H        -1.553039        -1.751975         2.245660
 H        -2.434784        -2.127126         0.893827
 H         0.322048        -1.832701         0.855546
 H        -0.874379        -1.491242        -0.650107
 H        -0.468381         2.162933        -0.011724
 H        -1.702002         0.947786        -0.777282
 H        -2.656512         2.121674         1.297659
