19
Iteration:  2658charge 0 multiplicity 1
 C        -3.976943        -0.325908         1.554809
 C        -2.475919        -0.102683         1.699582
 C        -1.535961        -1.314773         1.590807
 C        -0.433094        -1.282625         0.427596
 C         0.130357         0.057711         0.058566
 O         1.093184         0.226306        -0.712961
 C        -0.691750         1.256641         0.474157
 C        -1.969875         1.153624         1.138555
 O        -1.960157         0.895297         2.568490
 H        -4.467635        -1.107363         2.187067
 H        -4.598137         0.528904         1.539107
 H        -4.094364        -0.832084         0.508487
 H        -1.060681        -1.352840         2.603937
 H        -2.071546        -2.285820         1.403638
 H         0.300815        -2.069184         0.589344
 H        -0.950985        -1.511068        -0.580360
 H        -0.057900         1.936919         1.099032
 H        -0.851613         1.783073        -0.481271
 H        -2.691218         1.948732         0.897821
