19
Iteration:  1930
 C        -3.986131        -0.225540         2.020124
 C        -2.516819        -0.075828         1.539876
 C        -1.687683        -1.356225         1.222145
 C        -0.582460        -1.359335         0.161410
 C         0.072980         0.054828         0.041810
 O         1.285210         0.217080         0.061294
 C        -0.843386         1.211484        -0.005004
 C        -1.953856         1.252798         1.132975
 O        -1.684310         0.847084         2.453668
 H        -4.045824        -0.753177         3.025987
 H        -4.382538         0.754940         2.072823
 H        -4.543641        -0.825146         1.182588
 H        -1.125210        -1.509878         2.141384
 H        -2.277575        -2.220876         0.981789
 H         0.198959        -2.090108         0.361236
 H        -0.947001        -1.566019        -0.822358
 H        -0.201591         2.168020         0.050600
 H        -1.471400         1.219099        -0.855235
 H        -2.689808         2.056864         1.059703
