19
Iteration:  3152
 C        -3.935801        -0.256665         1.358089
 C        -2.377844        -0.132538         1.407000
 C        -1.432379        -1.388245         1.084774
 C         0.005780        -1.029643         1.173927
 C         0.019294         0.143972         0.161715
 O         0.372128        -0.092579        -0.954677
 C        -0.570879         1.543583         0.564527
 C        -1.862958         1.261360         1.378332
 O        -1.966669         0.564931         2.601627
 H        -4.329335        -0.747706         2.237512
 H        -4.393969         0.791078         1.440133
 H        -4.064061        -0.846266         0.468412
 H        -1.782207        -2.152733         1.780852
 H        -1.606193        -1.730317         0.081063
 H         0.160533        -0.597908         2.189313
 H         0.617186        -1.852826         0.885755
 H         0.304433         2.210494         0.968963
 H        -0.895013         1.827189        -0.438339
 H        -2.519464         2.104721         1.267968
