19
Iteration:  4257
 C        -3.746159        -0.290495         2.189612
 C        -2.432180        -0.119449         1.571051
 C        -1.896882        -1.318086         0.808101
 C        -0.356838        -1.369866         0.533413
 C        -0.022670         0.135317         0.197022
 O         1.095050         0.559587        -0.037955
 C        -1.077321         1.232801        -0.062327
 C        -1.962047         1.211402         1.104065
 O        -1.473514         0.553141         2.370116
 H        -3.812158        -1.198660         2.825800
 H        -3.965836         0.495871         2.854495
 H        -4.536463        -0.385173         1.486738
 H        -2.160440        -2.317330         1.253090
 H        -2.330417        -1.347280        -0.196020
 H         0.024856        -1.594336         1.497306
 H        -0.093344        -2.052591        -0.314173
 H        -0.564917         2.094773        -0.398832
 H        -1.723596         0.934270        -0.941950
 H        -2.689697         2.078258         1.321597
