19
Iteration:  1287charge 0 multiplicity 1
 C        -3.714335        -0.219664         2.275258
 C        -2.436873        -0.070228         1.562614
 C        -1.945499        -1.265099         0.838410
 C        -0.557783        -1.277650         0.300392
 C         0.028187         0.139405         0.087075
 O         1.155483         0.363809         0.534198
 C        -1.067041         1.179797        -0.326194
 C        -1.946148         1.242208         0.996063
 O        -1.403555         0.534036         2.286874
 H        -3.553684        -0.920127         3.048647
 H        -3.882907         0.856740         2.718100
 H        -4.557919        -0.447426         1.668163
 H        -2.196397        -2.068149         1.528991
 H        -2.764445        -1.447592         0.095258
 H         0.084648        -1.810189         0.933014
 H        -0.579672        -2.039048        -0.572699
 H        -0.547234         2.169673        -0.640253
 H        -1.728413         0.672458        -1.132876
 H        -2.463201         2.207368         1.217923
