19
Iteration:  4534
 C        -3.849822        -0.490646         1.735401
 C        -2.362250        -0.143326         1.715337
 C        -1.418389        -1.285350         1.541389
 C        -0.742317        -1.281997         0.140568
 C         0.023278         0.043194         0.065947
 O         1.146006         0.286312        -0.346054
 C        -0.707701         1.309276         0.342321
 C        -2.094924         1.149261         0.989707
 O        -1.874420         0.925471         2.510478
 H        -3.905335        -1.539250         1.807353
 H        -4.227233        -0.145000         2.754927
 H        -4.434069         0.034172         0.937897
 H        -0.609978        -1.117588         2.243658
 H        -1.779072        -2.329816         1.969209
 H        -0.220947        -2.265545        -0.189641
 H        -1.398807        -1.149576        -0.750646
 H        -0.076521         2.149284         0.837589
 H        -0.890570         1.715125        -0.593074
 H        -2.829560         1.943012         0.772461
