19
Iteration:  3027
 C        -3.937585        -0.238230         1.937960
 C        -2.495691        -0.177561         1.613731
 C        -1.681912        -1.415857         1.247801
 C        -0.388768        -1.225797         0.457288
 C         0.114647         0.127520         0.032627
 O         1.265553         0.247629        -0.446013
 C        -0.742115         1.301936         0.309960
 C        -2.073785         1.129798         1.059671
 O        -1.907159         0.797761         2.470613
 H        -4.337836        -1.195101         2.357495
 H        -4.199627         0.572434         2.588734
 H        -4.517178        -0.079702         0.979124
 H        -1.642651        -2.065184         2.122224
 H        -2.444698        -2.022168         0.642726
 H         0.375081        -1.458678         1.197400
 H        -0.263898        -1.794957        -0.485492
 H        -0.188455         2.046591         0.995117
 H        -0.998015         1.688234        -0.753856
 H        -2.900202         1.844704         0.836124
