19
Iteration:  2212charge 0 multiplicity 1
 C        -4.036320        -0.160554         1.723128
 C        -2.502788        -0.133841         1.650830
 C        -1.729147        -1.420207         1.235426
 C        -0.276425        -1.247461         0.727785
 C         0.156971         0.120367         0.090956
 O         1.121161         0.165570        -0.695933
 C        -0.733362         1.291955         0.363550
 C        -2.032987         1.157578         1.127661
 O        -1.818500         0.789707         2.546329
 H        -4.582228        -1.114599         1.885809
 H        -4.413060         0.495855         2.452086
 H        -4.507170         0.236763         0.747460
 H        -1.719489        -2.077099         2.107623
 H        -2.304278        -1.857349         0.416830
 H         0.465050        -1.676408         1.429925
 H        -0.114335        -1.930317        -0.153730
 H        -0.077879         1.912514         0.904516
 H        -0.851268         1.831581        -0.640628
 H        -2.737649         1.882210         0.993141
