19
Iteration:   918charge 0 multiplicity 1
 C        -4.030721        -0.309757         1.793720
 C        -2.558485        -0.089402         1.485067
 C        -1.809070        -1.305869         1.068467
 C        -0.293442        -1.003099         0.874228
 C         0.096778         0.143553         0.027474
 O         0.953526         0.040744        -0.825056
 C        -0.545335         1.465065         0.472099
 C        -1.861495         1.149363         1.190863
 O        -1.839514         0.541602         2.525903
 H        -4.172833        -1.047643         2.566167
 H        -4.421712         0.618779         2.293727
 H        -4.535291        -0.659880         0.913059
 H        -1.779526        -2.087264         1.902698
 H        -2.142718        -1.862607         0.152840
 H         0.231094        -0.750257         1.815689
 H         0.108789        -2.022964         0.623284
 H         0.128914         1.925919         1.343497
 H        -0.566470         2.207593        -0.250789
 H        -2.512761         2.033984         1.245112
