19
Iteration:  1577charge 0 multiplicity 1
 C        -3.646715        -0.381619         1.004487
 C        -2.279876        -0.064227         1.549945
 C        -1.472822        -1.285315         1.901275
 C        -0.480469        -1.328397         0.719432
 C         0.019240         0.021601         0.074553
 O         0.334892         0.009584        -1.119552
 C        -0.260100         1.293483         0.980650
 C        -1.715955         1.219968         1.212523
 O        -2.236355         1.122035         2.503029
 H        -4.208357        -0.903390         1.776185
 H        -4.307683         0.475456         0.759549
 H        -3.618068        -1.080070         0.201384
 H        -0.937502        -1.198024         2.830768
 H        -2.082002        -2.120560         1.851422
 H         0.525895        -1.866934         0.895211
 H        -0.848923        -1.932908        -0.129068
 H         0.230463         0.880817         1.948846
 H         0.114569         2.346246         0.649387
 H        -2.294996         1.880378         0.532526
