19
Iteration:  4184charge 0 multiplicity 1
 C        -3.918620        -0.330473         2.092653
 C        -2.495662        -0.173012         1.446118
 C        -1.813140        -1.398280         1.057073
 C        -0.339888        -1.225919         0.596750
 C         0.158671         0.181485         0.054209
 O         1.173047         0.440711        -0.531731
 C        -0.851911         1.301247         0.290374
 C        -1.989505         1.139804         1.199014
 O        -1.761442         0.642244         2.437654
 H        -4.088479        -1.452635         2.346090
 H        -3.950657         0.112214         3.056156
 H        -4.828682        -0.059936         1.521881
 H        -1.851975        -2.037850         1.877937
 H        -2.389420        -1.933147         0.235550
 H         0.175673        -1.208414         1.556775
 H        -0.103271        -2.054802        -0.056912
 H        -0.456878         2.364445         0.480803
 H        -1.208126         1.404753        -0.728022
 H        -2.725905         1.888160         1.153736
