19
Iteration:  4741charge 0 multiplicity 1
 C        -3.758591        -0.587337         1.373577
 C        -2.405580        -0.145178         1.701649
 C        -1.367653        -1.191391         1.917784
 C        -0.576712        -1.170971         0.458329
 C        -0.011499         0.047117        -0.070328
 O         0.820978         0.104610        -0.943576
 C        -0.434683         1.393726         0.642606
 C        -1.854103         1.101937         1.200933
 O        -2.239513         1.019974         2.502857
 H        -3.796683        -0.830813         0.320597
 H        -4.075980        -1.555856         1.993604
 H        -4.495384         0.177576         1.752522
 H        -0.755700        -0.893672         2.738056
 H        -1.620813        -2.297499         2.057233
 H         0.351939        -1.858209         0.485858
 H        -1.296845        -1.329912        -0.351088
 H         0.345007         1.598206         1.464936
 H        -0.390062         2.265305         0.095753
 H        -2.540299         1.646311         0.569584
