19
Iteration:  1794
 C        -3.789533        -0.488085         1.405226
 C        -2.442953        -0.050823         1.591547
 C        -1.387549        -1.231693         1.732637
 C        -0.677327        -1.171393         0.439680
 C         0.077382        -0.008092         0.123375
 O         0.911167        -0.104410        -0.777791
 C        -0.418566         1.345079         0.709133
 C        -1.887405         1.235526         1.040227
 O        -2.145782         1.063418         2.524121
 H        -4.110178        -1.105848         2.268853
 H        -4.603233         0.340125         1.244633
 H        -3.924377        -1.134180         0.564124
 H        -0.740179        -1.112932         2.676395
 H        -2.052774        -2.209098         1.729055
 H        -0.103685        -2.081388         0.182080
 H        -1.570557        -1.069478        -0.189459
 H         0.124450         1.792756         1.489035
 H        -0.188777         2.030719        -0.155624
 H        -2.629227         1.922958         0.526246
