19
Iteration:  4692
 C        -3.837984        -0.586389         1.498721
 C        -2.407169        -0.094629         1.565288
 C        -1.309823        -1.111599         1.696316
 C        -0.583407        -1.400278         0.446905
 C        -0.004359         0.010555        -0.022896
 O         0.937303         0.219094        -0.806770
 C        -0.517699         1.241430         0.601222
 C        -1.925888         1.206067         1.194158
 O        -2.182609         1.030752         2.554247
 H        -4.322187        -0.446918         0.488035
 H        -3.935144        -1.582748         1.801157
 H        -4.370497        -0.077407         2.284497
 H        -0.529876        -0.614984         2.394768
 H        -1.666752        -2.012920         2.180993
 H         0.244093        -1.994041         0.700316
 H        -1.258548        -1.777517        -0.357021
 H         0.165276         1.752702         1.225676
 H        -0.638244         2.001510        -0.271076
 H        -2.597458         1.863039         0.609908
