19
Iteration:  2983
 C        -3.965668        -0.343141         1.857763
 C        -2.498822        -0.093425         1.566902
 C        -1.772698        -1.301001         1.211152
 C        -0.525277        -1.227346         0.371428
 C         0.083439         0.133115         0.155745
 O         1.269233         0.284353        -0.106733
 C        -0.969790         1.226415         0.086916
 C        -2.033736         1.230243         1.146514
 O        -1.509009         0.723444         2.394792
 H        -3.920060        -1.329232         2.434884
 H        -4.349728         0.403090         2.455847
 H        -4.318327        -0.477455         0.794342
 H        -1.478500        -1.739906         2.202980
 H        -2.413581        -2.198091         0.871118
 H         0.300594        -1.801022         0.835300
 H        -0.903827        -1.622774        -0.627566
 H        -0.427178         2.279174        -0.023155
 H        -1.673305         0.992243        -0.857207
 H        -2.623906         2.160559         1.340436
