19
Iteration:   983
 C        -3.820871        -0.340405         1.185679
 C        -2.393064        -0.096785         1.542331
 C        -1.517484        -1.298565         1.248407
 C        -0.095616        -1.116584         0.983135
 C         0.020707         0.098048         0.133188
 O         0.163645        -0.017459        -1.076051
 C        -0.279328         1.415254         0.803921
 C        -1.747405         1.203425         1.341079
 O        -2.046236         0.776781         2.652772
 H        -4.301634        -0.988305         1.910415
 H        -4.439291         0.630212         1.167159
 H        -3.948921        -0.948454         0.297957
 H        -1.916647        -2.114942         1.986910
 H        -2.024803        -1.711003         0.298335
 H         0.576481        -1.004247         1.840085
 H         0.379960        -1.959747         0.362154
 H         0.365764         1.630179         1.702654
 H        -0.097732         2.170214         0.152425
 H        -2.362664         2.052598         0.974958
