19
Iteration:  4670charge 0 multiplicity 1
 C        -3.940448        -0.597753         1.623221
 C        -2.485026        -0.113269         1.684688
 C        -1.369693        -1.179242         1.760856
 C        -0.555197        -1.234644         0.395583
 C         0.087926         0.084758        -0.055580
 O         1.049353         0.110283        -0.819461
 C        -0.469415         1.388290         0.520506
 C        -1.956363         1.202699         1.072508
 O        -2.181536         0.929595         2.516848
 H        -4.426467        -0.669390         0.615488
 H        -3.991091        -1.588519         1.995993
 H        -4.550471        -0.124746         2.362802
 H        -0.765998        -0.809438         2.674976
 H        -1.724501        -2.167995         2.049793
 H         0.234859        -1.910499         0.512798
 H        -1.362649        -1.506578        -0.343626
 H         0.096420         1.655088         1.374654
 H        -0.340399         2.213090        -0.316189
 H        -2.660586         1.948410         0.662680
