19
Iteration:  2033
 C        -3.687204        -0.215466         2.421021
 C        -2.519141        -0.042992         1.409033
 C        -1.946126        -1.320405         0.753397
 C        -0.437028        -1.407246         0.373271
 C        -0.003875         0.027926         0.052322
 O         1.064174         0.373738         0.490146
 C        -0.984848         1.074749        -0.207927
 C        -1.894265         1.267236         0.987666
 O        -1.465778         0.807426         2.254951
 H        -3.384284        -0.923195         3.262057
 H        -3.962274         0.857857         2.962095
 H        -4.631764        -0.518902         1.894181
 H        -2.281924        -2.244218         1.264444
 H        -2.463884        -1.597438        -0.201923
 H         0.153992        -1.733639         1.256178
 H        -0.493577        -2.045631        -0.558574
 H        -0.315700         1.915076        -0.475318
 H        -1.693158         0.933536        -1.172404
 H        -2.669657         2.143700         1.182139
