19
Iteration:  2228
 C        -4.068429        -0.275383         1.622274
 C        -2.516845        -0.114794         1.696387
 C        -1.805674        -1.274124         1.213220
 C        -0.270432        -1.186405         0.825323
 C         0.161529         0.066300         0.141547
 O         0.957149         0.156148        -0.762867
 C        -0.641081         1.295409         0.379424
 C        -1.909829         1.112742         1.121862
 O        -1.740124         0.781585         2.553184
 H        -4.293782        -1.303106         1.890242
 H        -4.587829         0.535697         2.252971
 H        -4.343331        -0.338104         0.580855
 H        -1.942699        -2.227744         1.806522
 H        -2.284238        -1.542171         0.219550
 H         0.424711        -1.337066         1.683439
 H        -0.121797        -1.970885         0.087667
 H        -0.090291         2.113750         1.143439
 H        -0.804398         1.861256        -0.521554
 H        -2.670230         2.000433         0.991926
