19
Iteration:  1646charge 0 multiplicity 1
 C        -3.698968        -0.224612         0.871849
 C        -2.357616         0.020355         1.553744
 C        -1.336343        -1.238511         1.853135
 C        -0.162256        -1.251304         0.783919
 C        -0.034182        -0.021981         0.067460
 O         0.026138        -0.094855        -1.128716
 C        -0.149521         1.158248         1.041735
 C        -1.627758         1.271968         1.229343
 O        -2.376333         0.986822         2.524328
 H        -4.282873        -0.923457         1.366501
 H        -4.284144         0.712530         1.035536
 H        -3.728228        -0.535893        -0.139755
 H        -0.981041        -1.074375         2.877497
 H        -1.719830        -2.233934         1.646981
 H         0.742012        -1.274062         1.377158
 H         0.073868        -2.167460         0.181132
 H         0.185082         0.871457         2.099164
 H         0.262726         2.091333         0.591387
 H        -2.172489         1.974923         0.584633
