19
Iteration:  3074
 C        -3.903823        -0.465286         1.774520
 C        -2.512666        -0.088400         1.522032
 C        -1.772639        -1.292417         1.122833
 C        -0.269194        -1.159072         0.783630
 C         0.148651         0.071957         0.091754
 O         0.978792         0.148428        -0.765126
 C        -0.594788         1.392148         0.512628
 C        -1.895979         1.248566         1.108574
 O        -1.976755         0.751098         2.524801
 H        -3.935262        -0.978123         2.708236
 H        -4.573947         0.464441         2.002304
 H        -4.534401        -1.041426         1.089077
 H        -1.903410        -2.011142         1.904592
 H        -2.386068        -1.711724         0.319041
 H         0.201687        -1.157246         1.743981
 H         0.004749        -2.077327         0.214062
 H         0.144650         1.984267         1.193768
 H        -0.732893         1.855710        -0.494203
 H        -2.569288         2.073121         0.942348
