19
Iteration:   110charge 0 multiplicity 1
 C        -3.818352        -0.044054         2.232880
 C        -2.380322        -0.068208         1.605090
 C        -1.758530        -1.343500         1.085668
 C        -0.733994        -1.336870        -0.088176
 C        -0.003875         0.007914         0.063404
 O         1.045703         0.133601         0.780446
 C        -0.928939         1.194469        -0.323621
 C        -1.884998         1.131179         0.957461
 O        -1.382886         0.852970         2.248649
 H        -4.039133        -0.844757         3.021141
 H        -3.913638         0.904845         2.753759
 H        -4.443024         0.095308         1.299920
 H        -1.473282        -1.870731         1.950832
 H        -2.533758        -1.899918         0.664288
 H        -0.064686        -2.206168        -0.003273
 H        -1.237277        -1.316756        -1.031676
 H        -0.550190         2.219675        -0.507264
 H        -1.514875         0.937038        -1.166529
 H        -2.559723         1.985127         0.975136
