19
Iteration:  3941
 C        -3.836239        -0.437603         1.249639
 C        -2.409476        -0.113329         1.494151
 C        -1.418368        -1.296833         1.428641
 C        -0.052229        -1.087115         0.886022
 C        -0.030925         0.156545         0.032480
 O         0.393859         0.092091        -1.163961
 C        -0.535431         1.462541         0.801149
 C        -1.910951         1.250308         1.337373
 O        -1.999488         0.586110         2.672929
 H        -4.088591        -1.334750         1.872578
 H        -4.474301         0.463670         1.703752
 H        -4.054797        -0.541119         0.157345
 H        -1.355056        -1.642914         2.475091
 H        -1.955821        -2.194439         0.879075
 H         0.668674        -0.921781         1.667367
 H         0.363018        -1.851748         0.200434
 H         0.207258         1.684410         1.532831
 H        -0.610878         2.432642         0.191367
 H        -2.568874         2.114569         1.187393
