19
Iteration:  1294
 C        -3.744550        -0.193550         2.257543
 C        -2.420087        -0.060667         1.564411
 C        -2.003106        -1.286068         0.866929
 C        -0.572380        -1.344799         0.214713
 C         0.021286         0.107822         0.118969
 O         1.128116         0.403008         0.573456
 C        -1.028761         1.169496        -0.296515
 C        -1.942400         1.223408         1.010559
 O        -1.341042         0.597333         2.242197
 H        -3.479452        -0.844607         3.132963
 H        -4.027534         0.741278         2.800330
 H        -4.477627        -0.680012         1.581869
 H        -2.018315        -2.141433         1.654512
 H        -2.690361        -1.530568         0.024530
 H         0.206705        -1.864805         0.850241
 H        -0.647446        -1.877949        -0.726219
 H        -0.718566         2.090313        -0.578321
 H        -1.772934         0.856402        -1.006825
 H        -2.519767         2.146189         1.181544
