19
Iteration:  2275charge 0 multiplicity 1
 C        -4.000674        -0.246591         1.698111
 C        -2.512651        -0.100585         1.380210
 C        -1.654407        -1.215474         0.971847
 C        -0.146548        -0.948176         1.130198
 C         0.103595         0.133125         0.112456
 O         0.733172        -0.158052        -0.921855
 C        -0.541363         1.418444         0.542134
 C        -1.865033         1.230742         1.263344
 O        -1.923957         0.518006         2.533413
 H        -3.993997        -0.726777         2.686436
 H        -4.378902         0.771174         1.707992
 H        -4.471004        -0.999974         1.061947
 H        -2.001095        -2.103353         1.462684
 H        -1.921129        -1.382980        -0.088301
 H        -0.017397        -0.639186         2.136224
 H         0.466721        -1.802688         0.843109
 H         0.273799         2.010009         1.142528
 H        -0.798737         2.012822        -0.347571
 H        -2.566633         2.105792         1.196602
