19
Iteration:  3787
 C        -3.916220        -0.332564         1.871675
 C        -2.387108        -0.250698         1.602169
 C        -1.734375        -1.435655         1.007855
 C        -0.228891        -1.162603         0.713472
 C         0.098662         0.301318         0.142828
 O         1.073232         0.329436        -0.622454
 C        -0.904866         1.372593         0.217843
 C        -2.039359         1.149913         1.223100
 O        -1.752978         0.621361         2.603930
 H        -4.165922        -1.395757         2.085372
 H        -4.356382         0.255215         2.738177
 H        -4.572803        -0.118959         0.960096
 H        -1.965639        -2.196748         1.786895
 H        -2.414925        -1.552292         0.053468
 H         0.213064        -1.233164         1.696578
 H         0.281666        -1.798817         0.039892
 H        -0.416467         2.323121         0.189748
 H        -1.341776         1.257339        -0.877827
 H        -2.881683         1.823582         1.062921
