19
Iteration:  2010
 C        -3.678900        -0.246866         2.336454
 C        -2.436570        -0.029147         1.586182
 C        -1.983436        -1.336963         0.892942
 C        -0.562664        -1.356293         0.263210
 C         0.061194         0.067198         0.170617
 O         1.200588         0.354951         0.475325
 C        -0.954242         1.117295        -0.272875
 C        -1.982549         1.226442         0.878227
 O        -1.531206         0.789948         2.213014
 H        -3.535256        -1.236628         2.895868
 H        -3.755402         0.506652         3.242928
 H        -4.693221        -0.244670         1.797708
 H        -2.051632        -2.182874         1.606140
 H        -2.851443        -1.649679         0.281490
 H         0.017009        -1.881837         1.052125
 H        -0.533649        -1.841912        -0.734634
 H        -0.397255         2.086793        -0.530372
 H        -1.652682         0.935785        -1.172573
 H        -2.644750         2.181660         1.089019
