19
Iteration:  1843
 C        -3.901997        -0.385531         1.751463
 C        -2.502729        -0.044760         1.601821
 C        -1.331672        -1.133265         1.542037
 C        -0.709126        -1.285663         0.062444
 C         0.091263        -0.051479        -0.008341
 O         1.247214        -0.017569        -0.401599
 C        -0.664257         1.126322         0.533654
 C        -2.041386         1.241390         1.059694
 O        -2.089468         1.096634         2.500021
 H        -4.026577        -1.209577         2.496310
 H        -4.495132         0.428015         2.069728
 H        -4.396772        -0.775257         0.789562
 H        -0.532684        -0.834765         2.143023
 H        -1.770882        -1.960505         1.943558
 H        -0.046170        -2.129483         0.060529
 H        -1.459047        -1.281737        -0.712963
 H         0.116762         1.265217         1.382735
 H        -0.374934         1.984823        -0.036414
 H        -2.678542         1.929513         0.557135
