19
Iteration:  3964charge 0 multiplicity 1
 C        -3.851302        -0.434433         1.176665
 C        -2.431239        -0.197325         1.572819
 C        -1.421898        -1.405802         1.486917
 C        -0.048701        -1.190796         0.926448
 C        -0.003747         0.122206         0.071950
 O         0.270291         0.302982        -1.115493
 C        -0.472337         1.382144         0.718148
 C        -1.893524         1.160207         1.325221
 O        -1.921765         0.809252         2.663581
 H        -4.164520        -1.536786         1.304480
 H        -4.718307         0.194511         1.655119
 H        -3.855306        -0.200655         0.090601
 H        -1.504060        -1.965817         2.453795
 H        -2.028902        -2.149408         0.784800
 H         0.682206        -1.037024         1.691932
 H         0.404778        -1.890127         0.187630
 H         0.230055         1.757552         1.462434
 H        -0.478466         2.115888        -0.097852
 H        -2.553652         1.968800         1.132859
