19
Iteration:  4974
 C        -3.852269        -0.687598         1.537334
 C        -2.516401        -0.157753         1.733938
 C        -1.391337        -1.161491         1.740095
 C        -0.565134        -1.179503         0.346983
 C         0.122477         0.105232        -0.072784
 O         0.859915         0.173613        -1.067629
 C        -0.370445         1.265777         0.827256
 C        -1.826456         1.108831         1.239521
 O        -2.278173         1.154529         2.540447
 H        -4.476618        -1.064779         2.440355
 H        -4.410004        -0.114972         0.861425
 H        -3.806169        -1.703002         0.997326
 H        -0.700550        -0.958112         2.534021
 H        -1.698925        -2.229120         1.886447
 H         0.158077        -2.048996         0.393508
 H        -1.182444        -1.531978        -0.509909
 H         0.414878         1.311855         1.658615
 H        -0.179617         2.266418         0.268678
 H        -2.508150         1.602902         0.446252
