19
Iteration:  2419charge 0 multiplicity 1
 C        -3.963032        -0.400658         1.419764
 C        -2.477452        -0.083296         1.512806
 C        -1.510788        -1.331619         1.531293
 C        -0.209542        -1.297605         0.751319
 C         0.117419         0.109929         0.152110
 O         0.545071         0.085385        -0.973546
 C        -0.326594         1.401630         0.719269
 C        -1.844735         1.190339         1.121867
 O        -2.101379         0.916286         2.533702
 H        -3.996230        -1.498159         1.486122
 H        -4.492773         0.110931         2.139211
 H        -4.342949        -0.190747         0.384428
 H        -1.300764        -1.431568         2.571227
 H        -2.117440        -2.147574         1.235357
 H         0.627968        -1.698066         1.246469
 H        -0.346496        -1.850172        -0.175154
 H         0.244713         1.724869         1.712457
 H        -0.210280         2.184986        -0.133495
 H        -2.466542         1.989992         0.838656
