19
Iteration:  4703charge 0 multiplicity 1
 C        -3.802245        -0.534002         1.433564
 C        -2.394939        -0.129573         1.687526
 C        -1.264080        -1.148046         1.725343
 C        -0.479394        -1.348495         0.379961
 C         0.046389        -0.049524        -0.015275
 O         0.884899         0.142725        -0.825024
 C        -0.628967         1.305507         0.636821
 C        -1.999637         1.267382         1.174460
 O        -2.185832         1.075099         2.567318
 H        -4.262316        -0.410363         0.394548
 H        -3.808299        -1.560345         1.566027
 H        -4.496533        -0.006015         2.066419
 H        -0.584130        -0.756341         2.585986
 H        -1.554081        -2.115667         2.139354
 H         0.199023        -2.154261         0.366405
 H        -1.172684        -1.842574        -0.352611
 H         0.102577         1.418308         1.387117
 H        -0.376397         1.982456        -0.293705
 H        -2.829673         1.894953         0.771326
