19
Iteration:   306
 C        -3.943415        -0.159947         1.403040
 C        -2.481670        -0.011212         1.518495
 C        -1.606152        -1.221665         1.164884
 C        -0.115648        -1.166459         1.170396
 C         0.096012        -0.031062         0.155235
 O         0.534307        -0.134088        -1.023825
 C        -0.489521         1.289055         0.582491
 C        -1.820073         1.252273         1.251633
 O        -1.932735         0.761453         2.581508
 H        -4.320819        -1.153451         1.758302
 H        -4.380623         0.676415         1.742506
 H        -4.062342        -0.280356         0.265817
 H        -2.105693        -2.054657         1.801628
 H        -2.059773        -1.515139         0.098681
 H         0.170815        -0.775882         2.179112
 H         0.465335        -2.064630         0.980848
 H         0.203756         1.852032         1.273629
 H        -0.656286         2.006766        -0.253723
 H        -2.424555         2.128132         1.047949
