19
Iteration:  1427
 C        -3.916200        -0.324939         1.782408
 C        -2.432401        -0.133356         1.699755
 C        -1.497350        -1.366535         1.502493
 C        -0.727522        -1.274444         0.102546
 C         0.073732         0.087046         0.027777
 O         1.279447        -0.025161        -0.135176
 C        -0.700636         1.362947         0.144936
 C        -2.024677         1.257536         1.094830
 O        -1.894884         1.005105         2.494247
 H        -4.198061        -1.061436         2.517496
 H        -4.576928         0.686368         2.005601
 H        -4.367048        -0.596724         0.835447
 H        -0.627240        -1.442654         2.265196
 H        -1.978099        -2.390692         1.668880
 H        -0.064954        -2.090852         0.080875
 H        -1.366927        -1.431800        -0.801383
 H        -0.098208         2.158760         0.240579
 H        -1.236468         1.413482        -0.822357
 H        -2.782468         2.062143         0.806049
