19
Iteration:  1584charge 0 multiplicity 1
 C        -3.629699        -0.403772         0.949118
 C        -2.340231        -0.081898         1.602112
 C        -1.478404        -1.287690         1.848118
 C        -0.432856        -1.332547         0.712934
 C        -0.043434         0.053763         0.082056
 O         0.279310        -0.005421        -1.067165
 C        -0.219057         1.309625         0.954994
 C        -1.702494         1.242831         1.204973
 O        -2.178377         1.110776         2.521629
 H        -4.344289        -0.966000         1.702472
 H        -4.072799         0.499635         0.649997
 H        -3.445946        -1.125709         0.021593
 H        -1.023747        -1.180623         2.851574
 H        -2.150423        -2.235243         1.936609
 H         0.451037        -1.792329         1.164892
 H        -0.957203        -1.907822        -0.044392
 H         0.342622         1.217865         1.844629
 H         0.100615         2.215584         0.583103
 H        -2.251560         1.876782         0.534188
