19
Iteration:  3954
 C        -3.864658        -0.451270         1.185615
 C        -2.368033        -0.145643         1.518948
 C        -1.512601        -1.356770         1.463177
 C         0.031330        -1.101623         0.855470
 C        -0.019924         0.145989         0.082154
 O         0.304730         0.225309        -1.092542
 C        -0.529148         1.367710         0.698207
 C        -1.898628         1.243898         1.349959
 O        -1.915039         0.707080         2.689238
 H        -4.243516        -1.529705         1.411405
 H        -4.579288         0.315009         1.663384
 H        -4.004812        -0.411085         0.102110
 H        -1.352212        -1.636121         2.581569
 H        -1.984461        -2.267985         0.917821
 H         0.697570        -1.016435         1.699882
 H         0.243085        -2.050899         0.315348
 H         0.080530         1.524774         1.605995
 H        -0.381642         2.101450        -0.059516
 H        -2.651155         1.911906         1.141449
