19
Iteration:  4361charge 0 multiplicity 1
 C        -3.785519        -0.390953         2.258779
 C        -2.366821        -0.196014         1.630450
 C        -1.866334        -1.394207         0.939592
 C        -0.535071        -1.279731         0.225457
 C         0.042681         0.174931         0.040482
 O         1.219479         0.371010         0.214692
 C        -1.041188         1.309111        -0.160406
 C        -1.959328         1.213452         1.063694
 O        -1.566460         0.791517         2.403166
 H        -3.588823        -0.221188         3.274089
 H        -4.489033         0.376225         1.789330
 H        -4.138741        -1.442890         2.149512
 H        -1.853087        -2.164926         1.655087
 H        -2.701528        -1.738665         0.245192
 H         0.183518        -2.022691         0.738226
 H        -0.624578        -1.476781        -0.831847
 H        -0.433645         2.304233        -0.226060
 H        -1.680422         1.051523        -1.037264
 H        -2.817107         1.789144         1.182707
