19
Iteration:  3033charge 0 multiplicity 1
 C        -4.009855        -0.249990         1.900579
 C        -2.456397        -0.187007         1.588333
 C        -1.733768        -1.409026         1.209477
 C        -0.352609        -1.271983         0.473576
 C         0.150728         0.170332         0.035213
 O         1.255234         0.229211        -0.495282
 C        -0.754328         1.273890         0.373350
 C        -2.122837         1.096374         1.085412
 O        -1.884252         0.875273         2.477400
 H        -4.205051        -1.146874         2.530151
 H        -4.077876         0.566471         2.697331
 H        -4.472776        -0.161180         0.943026
 H        -1.573240        -2.027379         2.152219
 H        -2.389182        -1.970424         0.585120
 H         0.493574        -1.422793         1.222466
 H        -0.160263        -1.903881        -0.385966
 H        -0.206416         1.905673         1.012729
 H        -0.946410         1.909914        -0.459102
 H        -2.899590         1.792610         0.773688
