19
Iteration:  1067charge 0 multiplicity 1
 C        -3.717884        -0.318386         1.055846
 C        -2.260527        -0.088129         1.477866
 C        -1.496531        -1.402440         1.188865
 C         0.012175        -1.141512         1.095164
 C        -0.057822         0.076104         0.189246
 O        -0.091676        -0.094919        -1.002543
 C        -0.292956         1.465202         0.879159
 C        -1.721255         1.293729         1.315145
 O        -2.070911         0.800694         2.643828
 H        -4.062891        -1.306857         1.346429
 H        -4.300755         0.466241         1.546027
 H        -3.817816        -0.014938         0.002709
 H        -1.771145        -2.018716         1.968112
 H        -1.708546        -1.810831         0.219344
 H         0.596576        -0.949657         1.987132
 H         0.464414        -1.872512         0.439007
 H         0.385945         1.654594         1.718089
 H        -0.207384         2.239419        -0.007684
 H        -2.457514         1.979262         0.883347
