19
Iteration:   177
 C        -3.997767        -0.169049         2.204521
 C        -2.570733        -0.031156         1.497438
 C        -1.974743        -1.357825         1.090328
 C        -0.587980        -1.243022         0.361778
 C         0.178100         0.072927         0.105319
 O         1.359910         0.008430         0.000302
 C        -0.709637         1.296672         0.048677
 C        -2.006996         1.258689         1.002452
 O        -1.622278         0.793026         2.318822
 H        -3.850713        -0.595235         3.296288
 H        -4.487524         0.758135         2.252333
 H        -4.618684        -0.869189         1.536662
 H        -1.989689        -2.061981         1.882795
 H        -2.630433        -1.706720         0.366049
 H         0.280825        -1.804562         0.884264
 H        -0.758882        -1.825982        -0.499234
 H        -0.062583         2.203466         0.292843
 H        -0.901417         1.274271        -0.983861
 H        -2.582591         2.158183         0.929397
