19
Iteration:  4742charge 0 multiplicity 1
 C        -3.761113        -0.590883         1.381640
 C        -2.414818        -0.141053         1.695372
 C        -1.362604        -1.186795         1.914413
 C        -0.572964        -1.179503         0.460597
 C        -0.008971         0.049309        -0.067694
 O         0.810132         0.112281        -0.941597
 C        -0.421323         1.385016         0.642833
 C        -1.845580         1.113080         1.202211
 O        -2.241651         1.014719         2.498381
 H        -3.813636        -0.881563         0.333333
 H        -4.085058        -1.558574         1.989874
 H        -4.493032         0.186280         1.707976
 H        -0.771738        -0.917534         2.739578
 H        -1.625048        -2.294269         2.109309
 H         0.342562        -1.875924         0.463865
 H        -1.286015        -1.303781        -0.348972
 H         0.347197         1.609058         1.480849
 H        -0.416081         2.242436         0.079918
 H        -2.523464         1.661827         0.553517
