19
Iteration:   220
 C        -3.973030        -0.149780         1.914642
 C        -2.514123        -0.014937         1.552657
 C        -1.907082        -1.334195         0.950202
 C        -0.408029        -1.395763         0.760530
 C         0.123165        -0.068542         0.091833
 O         1.179284         0.080755        -0.457352
 C        -0.666267         1.217928         0.322736
 C        -1.921439         1.314164         1.127534
 O        -1.759460         0.907002         2.449773
 H        -4.150107        -0.907778         2.798269
 H        -4.315227         0.772244         2.287348
 H        -4.701138        -0.560585         1.106420
 H        -2.311863        -2.207150         1.433607
 H        -2.337527        -1.361718        -0.011450
 H         0.079887        -1.367747         1.792510
 H         0.045476        -2.205360         0.199797
 H         0.076495         2.082056         0.412282
 H        -1.102284         1.309903        -0.676797
 H        -2.642308         2.097973         0.920344
