19
Iteration:  2303
 C        -4.095022        -0.243591         1.556793
 C        -2.486317        -0.173185         1.504938
 C        -1.613005        -1.368640         0.916149
 C        -0.075549        -1.084253         1.201209
 C         0.169307         0.149028         0.208965
 O         0.464351        -0.040135        -0.940932
 C        -0.480530         1.402580         0.559265
 C        -1.890629         1.199581         1.204973
 O        -1.745627         0.701351         2.538710
 H        -4.441748        -0.658295         2.511675
 H        -4.523509         0.832515         1.305247
 H        -4.408801        -1.009993         0.853043
 H        -1.974977        -2.351623         1.405167
 H        -1.836105        -1.217059        -0.180207
 H        -0.248330        -0.783576         2.304702
 H         0.719557        -1.833825         1.114097
 H         0.101137         1.976364         1.284757
 H        -0.511617         2.059114        -0.297427
 H        -2.579389         2.096014         1.075976
