19
Iteration:  2002
 C        -3.751410        -0.265542         2.362498
 C        -2.403558        -0.070707         1.571495
 C        -1.997995        -1.344746         0.956863
 C        -0.602768        -1.289714         0.283907
 C         0.049038         0.099873         0.201605
 O         1.236729         0.321637         0.450860
 C        -0.984757         1.141265        -0.221375
 C        -2.029050         1.217136         0.870808
 O        -1.446898         0.798276         2.165159
 H        -3.813037        -1.252561         2.758906
 H        -3.870171         0.566875         3.122028
 H        -4.482091        -0.161090         1.614056
 H        -1.837616        -2.115135         1.699782
 H        -2.684788        -1.546136         0.122202
 H         0.116438        -1.976168         0.797657
 H        -0.667491        -1.666393        -0.795130
 H        -0.434403         2.004025        -0.398936
 H        -1.368222         0.638692        -1.197805
 H        -2.784199         2.030870         0.914717
