19
Iteration:  3877charge 0 multiplicity 1
 C        -3.900321        -0.494004         1.648572
 C        -2.384314        -0.139881         1.482892
 C        -1.556036        -1.338724         1.010177
 C        -0.046724        -1.092366         1.029514
 C         0.022662         0.216660         0.169220
 O         0.531506         0.161423        -0.978380
 C        -0.619601         1.438208         0.673645
 C        -2.027068         1.215204         1.165413
 O        -1.826674         0.645588         2.509038
 H        -4.016238        -0.719191         2.734746
 H        -4.554662         0.426175         1.448844
 H        -4.282952        -1.264404         1.007036
 H        -1.836597        -2.109636         1.773697
 H        -1.856595        -1.584195        -0.057192
 H         0.266980        -1.073749         2.058735
 H         0.550345        -1.853959         0.479451
 H        -0.021112         1.734811         1.542724
 H        -0.509752         2.192277        -0.140254
 H        -2.750139         1.957910         1.271226
