19
Iteration:  3757charge 0 multiplicity 1
 C        -4.003541        -0.429493         2.007504
 C        -2.520920        -0.150556         1.481324
 C        -1.722256        -1.388864         1.142096
 C        -0.312934        -1.224893         0.558694
 C         0.041726         0.217823         0.007240
 O         1.181437         0.437617        -0.306756
 C        -0.946254         1.359255         0.106448
 C        -2.047621         1.177826         1.232643
 O        -1.583045         0.599618         2.393656
 H        -4.091952        -1.451853         2.313115
 H        -4.347936         0.143625         2.956954
 H        -4.696987        -0.205744         1.240796
 H        -1.697253        -1.953009         2.139646
 H        -2.417420        -1.960369         0.560999
 H         0.488927        -1.492618         1.268224
 H        -0.160175        -1.937724        -0.317555
 H        -0.248582         2.144869         0.444425
 H        -1.389769         1.660701        -0.863312
 H        -2.712550         2.011245         1.214118
