19
Iteration:  1815charge 0 multiplicity 1
 C        -3.860632        -0.573700         1.572074
 C        -2.488071        -0.063500         1.726868
 C        -1.483417        -1.235311         1.703321
 C        -0.814686        -1.202933         0.265318
 C         0.121955         0.003916         0.002897
 O         1.155879        -0.071917        -0.649731
 C        -0.418108         1.391737         0.599583
 C        -1.833380         1.208130         1.074734
 O        -2.200095         1.131282         2.476711
 H        -4.087410        -1.360774         2.315546
 H        -4.515094         0.321214         1.831323
 H        -4.149168        -0.950163         0.603938
 H        -0.598580        -1.100731         2.430725
 H        -2.145257        -2.220713         1.830428
 H        -0.233657        -2.141827         0.155127
 H        -1.597294        -1.173541        -0.567732
 H         0.325960         1.536045         1.331036
 H        -0.323557         2.245434        -0.133653
 H        -2.513101         1.843253         0.414605
