19
Iteration:  3174
 C        -3.881359        -0.404309         1.258488
 C        -2.412754        -0.106622         1.460910
 C        -1.569202        -1.301023         1.273682
 C        -0.016503        -1.014555         1.114703
 C         0.065278         0.197562         0.096019
 O         0.348070        -0.062959        -1.050530
 C        -0.467854         1.447211         0.683140
 C        -1.867598         1.228745         1.281481
 O        -1.945626         0.653039         2.594715
 H        -4.189400        -1.200832         1.913877
 H        -4.555518         0.378106         1.695876
 H        -4.118630        -0.748332         0.264046
 H        -1.864051        -1.826109         2.193387
 H        -1.975032        -1.889402         0.476123
 H         0.458749        -0.662363         2.051758
 H         0.445733        -1.862734         0.677016
 H         0.145848         1.721778         1.637376
 H        -0.458515         2.196559        -0.101543
 H        -2.406573         2.160155         1.227582
