19
Iteration:  3854charge 0 multiplicity 1
 C        -3.892559        -0.559396         1.792488
 C        -2.471695        -0.162629         1.403930
 C        -1.682723        -1.422225         0.956491
 C        -0.193021        -0.980819         0.975524
 C         0.113662         0.273744         0.147142
 O         0.692741         0.062816        -0.879916
 C        -0.598068         1.621562         0.543798
 C        -1.902172         1.238181         1.297162
 O        -1.868978         0.556228         2.496634
 H        -3.855281        -0.847564         2.857387
 H        -4.566372         0.431499         1.766021
 H        -4.434218        -1.209992         1.094405
 H        -1.824655        -2.253574         1.681902
 H        -1.858819        -1.550392        -0.203556
 H         0.140165        -0.855881         1.986312
 H         0.508867        -1.669661         0.496479
 H         0.077157         2.292035         1.034991
 H        -0.958951         2.056133        -0.479248
 H        -2.754017         1.874318         1.267755
