19
Iteration:   308
 C        -3.952866        -0.180319         1.378806
 C        -2.476688        -0.012099         1.521830
 C        -1.607426        -1.246333         1.162772
 C        -0.111742        -1.186453         1.160032
 C         0.110163        -0.011331         0.152226
 O         0.508886        -0.134378        -1.022726
 C        -0.475926         1.281890         0.596581
 C        -1.821288         1.269011         1.241553
 O        -1.923191         0.793872         2.591580
 H        -4.352755        -1.197919         1.748315
 H        -4.458240         0.687450         1.727574
 H        -4.083294        -0.341906         0.284111
 H        -2.081642        -2.009266         1.800772
 H        -2.054314        -1.533211         0.192324
 H         0.163741        -0.790603         2.206342
 H         0.425767        -2.038308         0.948274
 H         0.249102         1.841131         1.322320
 H        -0.600133         2.015696        -0.175752
 H        -2.420631         2.112504         1.048905
