19
Iteration:  1160charge 0 multiplicity 1
 C        -4.092677        -0.242251         1.626102
 C        -2.492978        -0.110900         1.587617
 C        -1.710527        -1.400879         1.051215
 C        -0.181663        -1.184969         0.879213
 C         0.115803         0.043884         0.084334
 O         0.897388         0.160148        -0.840489
 C        -0.650565         1.335392         0.450389
 C        -1.877948         1.229449         1.315329
 O        -1.818553         0.723966         2.600123
 H        -4.379696        -0.760996         2.603087
 H        -4.700728         0.662985         1.564443
 H        -4.443449        -0.854785         0.753797
 H        -1.943111        -2.213485         1.808330
 H        -2.185475        -1.574076         0.057416
 H         0.389726        -1.070844         1.867478
 H         0.218963        -2.002346         0.293003
 H         0.043184         1.926442         1.060531
 H        -0.883011         1.910078        -0.402067
 H        -2.545784         2.072283         1.085644
