19
Iteration:   276charge 0 multiplicity 1
 C        -4.091964        -0.029934         1.559288
 C        -2.529397        -0.049349         1.446171
 C        -1.689840        -1.388833         1.030910
 C        -0.204596        -1.011294         1.119946
 C         0.143377         0.068795         0.088672
 O         0.807437        -0.250585        -0.843061
 C        -0.600128         1.428154         0.330182
 C        -1.816700         1.218575         1.330082
 O        -1.836557         0.588994         2.624044
 H        -4.446899        -0.952523         2.169549
 H        -4.389036         0.904360         2.088973
 H        -4.457982         0.103653         0.526490
 H        -1.875619        -2.102924         1.802107
 H        -1.941095        -1.758565         0.098518
 H        -0.202907        -0.658238         2.215241
 H         0.602252        -1.648517         1.001353
 H         0.125513         2.170287         0.838756
 H        -0.996285         1.815767        -0.584131
 H        -2.340897         2.134979         1.255832
