19
Iteration:  4699
 C        -3.804857        -0.535294         1.447496
 C        -2.404266        -0.124937         1.634362
 C        -1.276238        -1.121850         1.686547
 C        -0.534506        -1.369979         0.408916
 C         0.022657        -0.027903        -0.015998
 O         0.905797         0.184488        -0.814494
 C        -0.586961         1.278671         0.607657
 C        -1.968364         1.245644         1.206664
 O        -2.182349         1.062753         2.553043
 H        -4.319782        -0.530461         0.513625
 H        -3.898452        -1.666690         1.651124
 H        -4.419946        -0.048811         2.213275
 H        -0.686322        -0.776645         2.468748
 H        -1.530908        -2.073246         2.255042
 H         0.273312        -2.168564         0.581996
 H        -1.228153        -1.819998        -0.284044
 H         0.208411         1.574158         1.408044
 H        -0.503642         1.858998        -0.240453
 H        -2.710592         1.859659         0.680092
