19
Iteration:  1784charge 0 multiplicity 1
 C        -3.845717        -0.488458         1.318246
 C        -2.372515        -0.020409         1.650275
 C        -1.408022        -1.177397         1.765613
 C        -0.640433        -1.314863         0.467044
 C         0.096173        -0.006585         0.118807
 O         0.847357        -0.053165        -0.823817
 C        -0.445342         1.357541         0.715247
 C        -1.905064         1.253966         1.088510
 O        -2.134118         1.037708         2.507337
 H        -4.331556        -0.837902         2.238493
 H        -4.358959         0.561318         1.048854
 H        -3.826669        -1.193308         0.516344
 H        -0.705513        -1.033587         2.648931
 H        -1.888232        -2.213656         1.967273
 H        -0.004007        -2.229938         0.280637
 H        -1.211164        -1.414614        -0.435250
 H         0.144151         1.491561         1.593895
 H        -0.302446         2.146824        -0.073229
 H        -2.546350         2.010034         0.570251
