19
Iteration:  1885
 C        -3.929268        -0.390180         1.840165
 C        -2.423039        -0.124431         1.638187
 C        -1.600329        -1.419840         1.511631
 C        -0.762097        -1.171913         0.166316
 C         0.061938         0.081106         0.046519
 O         1.278087         0.018237        -0.176852
 C        -0.651465         1.386773         0.215942
 C        -1.914989         1.183160         1.009680
 O        -1.892115         0.988861         2.432577
 H        -4.044181        -0.825401         2.858740
 H        -4.499692         0.593973         1.816390
 H        -4.386955        -1.128482         1.098628
 H        -0.949958        -1.454709         2.414289
 H        -2.207821        -2.332625         1.299146
 H        -0.080175        -1.990686        -0.102967
 H        -1.516740        -1.091667        -0.612822
 H        -0.091720         2.229681         0.711213
 H        -0.947091         1.727577        -0.751146
 H        -2.663607         1.905529         0.827192
