19
Iteration:    30charge 0 multiplicity 1
 C        -3.879264        -0.139964         2.270540
 C        -2.403049        -0.051434         1.594034
 C        -1.728872        -1.338330         1.184445
 C        -0.853370        -1.260829        -0.050862
 C         0.105281        -0.053172         0.184332
 O         1.314056         0.010276         0.450688
 C        -0.711723         1.223420        -0.075483
 C        -2.056336         1.146115         0.835582
 O        -1.659099         1.012354         2.235205
 H        -4.030947        -1.083380         2.779080
 H        -3.659640         0.808470         2.947993
 H        -4.798922        -0.070062         1.590890
 H        -1.247944        -1.812609         2.013754
 H        -2.571930        -1.962779         0.941146
 H        -0.323188        -2.150782        -0.239916
 H        -1.431251        -1.104156        -1.032520
 H        -0.133832         2.083955         0.148607
 H        -0.872265         1.059283        -1.179550
 H        -2.916527         1.843566         0.550424
