19
Iteration:   888
 C        -3.958804        -0.265464         1.843156
 C        -2.526944        -0.101004         1.583652
 C        -1.863182        -1.301065         0.890945
 C        -0.299656        -1.188116         0.809938
 C         0.109901         0.064276         0.091769
 O         1.103594         0.150710        -0.603790
 C        -0.830650         1.327664         0.290573
 C        -1.905654         1.223116         1.299049
 O        -1.673505         0.655564         2.551504
 H        -4.163139        -1.176590         2.436952
 H        -4.505327         0.700348         2.200166
 H        -4.509689        -0.403244         0.909501
 H        -2.146883        -2.223825         1.363618
 H        -2.299391        -1.349008        -0.110628
 H         0.221874        -1.056262         1.758269
 H         0.084835        -2.188523         0.307933
 H        -0.202642         2.294210         0.432391
 H        -1.326940         1.560575        -0.723184
 H        -2.576727         2.104495         1.337036
