19
Iteration:  2644
 C        -4.023116        -0.455526         1.536097
 C        -2.524689        -0.050853         1.683804
 C        -1.468659        -1.219031         1.586878
 C        -0.482447        -1.359695         0.395077
 C         0.136088        -0.020273        -0.055153
 O         1.156778         0.254095        -0.743692
 C        -0.586072         1.215150         0.467576
 C        -1.969022         1.243747         1.224761
 O        -2.104746         0.944545         2.648626
 H        -4.183657        -1.380367         2.170659
 H        -4.601615         0.404245         1.874914
 H        -4.051603        -0.569959         0.445604
 H        -0.923129        -1.355293         2.540351
 H        -2.190348        -2.112152         1.541287
 H         0.369609        -2.134667         0.528672
 H        -1.056801        -1.838780        -0.397080
 H         0.294662         1.874798         1.022878
 H        -0.751972         1.818495        -0.409288
 H        -2.583020         2.164294         0.916155
