19
Iteration:  1895
 C        -3.874864        -0.400443         1.843735
 C        -2.456194        -0.135100         1.642835
 C        -1.635454        -1.353779         1.365958
 C        -0.738698        -1.149022         0.237031
 C         0.129025         0.057666         0.103498
 O         1.296795         0.022987        -0.154701
 C        -0.741225         1.362689         0.135757
 C        -2.003743         1.170568         1.043721
 O        -1.798538         0.993779         2.494779
 H        -4.156364        -0.761592         2.827208
 H        -4.510340         0.533828         1.638259
 H        -4.218660        -1.158617         1.112868
 H        -1.110256        -1.673640         2.343991
 H        -2.409736        -2.185558         1.239585
 H        -0.254183        -2.107743        -0.008185
 H        -1.483519        -0.869941        -0.521258
 H        -0.046389         2.160930         0.353277
 H        -1.016692         1.550117        -0.889671
 H        -2.749814         1.897774         0.789792
