19
Iteration:  2557
 C        -3.778667        -0.565794         1.498692
 C        -2.414663        -0.033903         1.742903
 C        -1.300381        -1.202042         1.628856
 C        -0.690275        -1.295171         0.207276
 C         0.060947        -0.001138        -0.061293
 O         1.027570         0.118723        -0.779586
 C        -0.439784         1.189915         0.733167
 C        -1.923605         1.240892         1.205194
 O        -2.349377         1.154762         2.593659
 H        -4.240682        -1.175902         2.312768
 H        -4.487507         0.242683         1.303496
 H        -3.909823        -1.203313         0.597356
 H        -0.443349        -1.223554         2.344111
 H        -1.877608        -2.175874         1.828950
 H         0.195718        -2.025019         0.152905
 H        -1.435936        -1.448235        -0.594983
 H         0.142083         1.161705         1.653798
 H        -0.139437         2.018914         0.163719
 H        -2.688907         1.758524         0.534958
