19
Iteration:  4379
 C        -3.867580        -0.325586         2.198582
 C        -2.444983        -0.148124         1.703422
 C        -1.848271        -1.414686         1.080147
 C        -0.575151        -1.201117         0.133761
 C         0.083498         0.156359         0.150125
 O         1.244980         0.474276         0.111573
 C        -0.973247         1.161566        -0.053004
 C        -2.017252         1.089366         1.014554
 O        -1.476681         0.757527         2.363647
 H        -4.113536        -0.269398         3.290833
 H        -4.575584         0.289350         1.769372
 H        -4.154381        -1.346802         1.968127
 H        -1.668448        -2.273916         1.785763
 H        -2.573201        -1.743196         0.305335
 H         0.268490        -1.832063         0.291815
 H        -1.030111        -1.269523        -0.891958
 H        -0.572959         2.194069        -0.022255
 H        -1.349824         0.987406        -1.075425
 H        -2.637917         2.034177         1.046294
