19
Iteration:  3889charge 0 multiplicity 1
 C        -3.884666        -0.467480         1.580191
 C        -2.450277        -0.200348         1.531597
 C        -1.578082        -1.338416         1.118897
 C        -0.013780        -1.057595         1.044063
 C         0.125270         0.092643         0.079270
 O         0.461818         0.249818        -1.054011
 C        -0.583438         1.380959         0.717445
 C        -1.988974         1.219004         1.219001
 O        -1.872703         0.691702         2.545874
 H        -4.317373        -0.780417         2.554776
 H        -4.380875         0.475898         1.294811
 H        -4.166424        -1.226519         0.884106
 H        -1.802393        -2.354753         1.564489
 H        -1.909902        -1.551422         0.088453
 H         0.459893        -0.683363         1.946831
 H         0.508889        -1.978023         0.647025
 H         0.015457         1.701913         1.608865
 H        -0.529210         2.192601         0.014409
 H        -2.689868         1.876153         0.807982
