19
Iteration:  2166charge 0 multiplicity 1
 C        -3.983475        -0.323326         1.929382
 C        -2.605861        -0.032581         1.560534
 C        -1.836051        -1.347617         1.237457
 C        -0.422773        -1.215278         0.573609
 C         0.140185         0.080342         0.085205
 O         1.268321         0.169502        -0.341314
 C        -0.800282         1.359336         0.159144
 C        -1.962023         1.216960         1.077909
 O        -1.687393         0.718966         2.404888
 H        -4.174803        -1.401356         2.191344
 H        -4.402974         0.359634         2.773546
 H        -4.729528        -0.148614         1.104230
 H        -1.690514        -1.852558         2.169529
 H        -2.502129        -1.879027         0.541669
 H         0.311404        -1.792944         1.137135
 H        -0.410739        -1.838124        -0.360007
 H        -0.188718         2.085459         0.506866
 H        -1.069201         1.587192        -0.899007
 H        -2.634024         2.094851         1.122186
