19
Iteration:  4979
 C        -3.860430        -0.695634         1.554335
 C        -2.472832        -0.135568         1.766254
 C        -1.384484        -1.183163         1.713140
 C        -0.567886        -1.202737         0.378198
 C         0.103313         0.146910        -0.088276
 O         0.871059         0.157567        -1.038391
 C        -0.345106         1.281627         0.778917
 C        -1.892492         1.128772         1.222936
 O        -2.287283         1.093126         2.520067
 H        -4.392663        -1.058685         2.384814
 H        -4.464167         0.056620         0.917185
 H        -3.675333        -1.568781         0.951401
 H        -0.738861        -0.997358         2.642513
 H        -1.786089        -2.132159         2.069753
 H         0.116680        -2.023679         0.320022
 H        -1.222874        -1.374632        -0.504735
 H         0.421493         1.309935         1.522388
 H        -0.036670         2.262031         0.342202
 H        -2.400806         1.729673         0.510410
