19
Iteration:   505charge 0 multiplicity 1
 C        -3.736461        -0.516217         1.252853
 C        -2.359286        -0.076010         1.611396
 C        -1.389116        -1.166608         1.833109
 C        -0.699284        -1.324616         0.454666
 C         0.034495        -0.013093         0.016223
 O         0.703212         0.089981        -0.984550
 C        -0.290942         1.161381         0.968514
 C        -1.751702         1.207183         1.139410
 O        -2.278410         1.168067         2.499296
 H        -4.193586        -1.244950         1.948807
 H        -4.415815         0.349846         1.237439
 H        -3.579393        -0.905323         0.247250
 H        -0.624368        -0.831528         2.597169
 H        -1.955820        -2.082630         2.269004
 H         0.032707        -2.142498         0.381229
 H        -1.450532        -1.474806        -0.298755
 H         0.265412         1.200768         1.912208
 H        -0.105259         2.137591         0.458197
 H        -2.341522         1.892309         0.466320
