19
Iteration:   267
 C        -4.062616        -0.033510         1.636142
 C        -2.585512        -0.081679         1.473293
 C        -1.772458        -1.340886         1.033640
 C        -0.226041        -1.007656         1.084318
 C         0.111057         0.080505         0.119595
 O         0.923592        -0.252164        -0.797529
 C        -0.647913         1.463555         0.338553
 C        -1.773101         1.189623         1.297334
 O        -1.774089         0.572168         2.520998
 H        -4.623832        -0.909856         2.090992
 H        -4.506039         0.947599         2.154411
 H        -4.453483        -0.074961         0.634101
 H        -1.874978        -2.117356         1.750757
 H        -2.058749        -1.753251         0.107389
 H        -0.081009        -0.504370         2.102623
 H         0.392010        -1.920311         1.013294
 H        -0.083508         2.349992         0.712123
 H        -1.076017         1.775257        -0.594126
 H        -2.398702         2.104463         1.429082
