19
Iteration:   128charge 0 multiplicity 1
 C        -3.813437         0.050718         2.154862
 C        -2.387540        -0.066031         1.587850
 C        -1.874389        -1.479473         1.073571
 C        -0.687563        -1.291639         0.004670
 C        -0.015488         0.039322         0.146800
 O         1.151000         0.177260         0.593888
 C        -0.954053         1.169438        -0.176482
 C        -1.920030         1.197284         0.961502
 O        -1.406281         0.771115         2.261087
 H        -3.850758        -0.502427         3.071065
 H        -3.998387         1.183498         2.375467
 H        -4.522275        -0.347607         1.404668
 H        -1.297295        -2.045879         1.864563
 H        -2.730276        -2.183272         0.758106
 H         0.031438        -2.040153         0.178761
 H        -1.075582        -1.451460        -1.095502
 H        -0.382274         2.064177        -0.295744
 H        -1.533037         0.858993        -1.137789
 H        -2.561370         2.136420         0.974253
