19
Iteration:  4830charge 0 multiplicity 1
 C        -3.853188        -0.504424         1.362338
 C        -2.452710        -0.141401         1.637810
 C        -1.324734        -1.256367         1.789854
 C        -0.383256        -1.319598         0.640427
 C         0.147185         0.110251         0.046922
 O         0.543023         0.237586        -1.101165
 C        -0.370106         1.323263         0.780315
 C        -1.849738         1.054197         1.075958
 O        -2.202975         1.024084         2.559087
 H        -3.940722        -1.589436         1.485385
 H        -4.482270         0.221798         2.007871
 H        -4.195434        -0.220075         0.361537
 H        -0.774492        -0.907709         2.579507
 H        -1.767798        -2.283389         1.886272
 H         0.300483        -2.248505         0.711511
 H        -0.864404        -1.632570        -0.294604
 H         0.147539         1.485277         1.779078
 H        -0.219041         2.270846         0.326894
 H        -2.486807         1.817718         0.592756
