19
Iteration:  1270
 C        -3.771958        -0.141957         2.335811
 C        -2.495144        -0.088408         1.516301
 C        -2.032219        -1.333138         0.712589
 C        -0.486161        -1.211308         0.453546
 C         0.004467         0.129114         0.160802
 O         1.212680         0.357980         0.323002
 C        -1.023611         1.131055        -0.240521
 C        -1.908203         1.186217         1.012385
 O        -1.450245         0.573117         2.300641
 H        -3.703867        -1.131126         2.965117
 H        -3.822670         0.588072         3.059840
 H        -4.632419        -0.224826         1.593895
 H        -2.156467        -2.264165         1.309612
 H        -2.518972        -1.458822        -0.251927
 H         0.185353        -1.531208         1.333330
 H        -0.115303        -1.769249        -0.373291
 H        -0.672463         2.149747        -0.400569
 H        -1.659178         0.843233        -1.039767
 H        -2.386149         2.125777         1.212576
