19
Iteration:  1708
 C        -3.821068        -0.404834         1.164498
 C        -2.391077        -0.071029         1.458440
 C        -1.472122        -1.221377         1.750317
 C        -0.322659        -1.328568         0.748409
 C         0.034201         0.038731         0.182916
 O         0.273426         0.008698        -1.022329
 C        -0.188557         1.307030         0.982054
 C        -1.661322         1.239944         1.144399
 O        -2.192223         1.031239         2.398900
 H        -4.214100        -0.830917         2.119157
 H        -4.415702         0.629649         0.873137
 H        -3.860058        -1.013839         0.271436
 H        -1.173706        -1.324972         2.807447
 H        -1.988675        -2.189204         1.651216
 H         0.662016        -1.759559         1.219680
 H        -0.568183        -1.869805        -0.165163
 H         0.223057         1.234078         2.044250
 H         0.243830         2.160666         0.332294
 H        -2.227867         1.894449         0.413362
