19
Iteration:   790charge 0 multiplicity 1
 C        -3.628401        -0.185744         2.367408
 C        -2.510503        -0.101415         1.452162
 C        -1.987096        -1.407014         0.797851
 C        -0.525286        -1.335790         0.262451
 C         0.011724         0.059166         0.272826
 O         1.176505         0.337935         0.441976
 C        -1.033195         1.183805        -0.086956
 C        -2.068571         1.203238         0.947856
 O        -1.360380         0.791530         2.121275
 H        -3.434238        -0.910296         3.186634
 H        -4.001629         0.878426         2.819203
 H        -4.584282        -0.425493         1.874177
 H        -2.146612        -2.141181         1.551369
 H        -2.701454        -1.639125        -0.009583
 H        -0.049866        -1.953844         0.991348
 H        -0.312241        -1.788048        -0.803388
 H        -0.423712         2.125969        -0.033479
 H        -1.517249         1.076296        -1.127973
 H        -2.823485         1.998491         1.172190
