19
Iteration:  3264
 C        -3.912441        -0.493335         1.271168
 C        -2.411587        -0.172595         1.489175
 C        -1.453052        -1.265845         1.753502
 C        -0.257734        -1.218982         0.762883
 C         0.001194         0.092670         0.008797
 O         0.529566         0.253482        -1.102873
 C        -0.321422         1.325891         0.883119
 C        -1.802199         1.190159         1.151142
 O        -2.155427         0.890651         2.509578
 H        -4.133430        -1.582634         1.434479
 H        -4.441235         0.004546         2.013438
 H        -4.352957        -0.231980         0.295392
 H        -1.129488        -1.241541         2.838060
 H        -1.868477        -2.228805         1.708702
 H         0.597863        -1.510452         1.445207
 H        -0.289732        -2.014762        -0.016109
 H         0.403959         1.385466         1.764083
 H        -0.095037         2.141533         0.146696
 H        -2.673177         1.769866         0.784181
