19
Iteration:  2657
 C        -3.977569        -0.327511         1.558390
 C        -2.472193        -0.096707         1.704945
 C        -1.530057        -1.305641         1.589662
 C        -0.432989        -1.288864         0.421663
 C         0.137614         0.052474         0.045127
 O         1.094606         0.229916        -0.713828
 C        -0.692941         1.244991         0.475918
 C        -1.964342         1.157816         1.138668
 O        -1.971598         0.897038         2.570079
 H        -4.495333        -1.139358         2.146401
 H        -4.635900         0.474754         1.533651
 H        -4.103162        -0.817117         0.522090
 H        -1.082862        -1.341636         2.613860
 H        -2.093309        -2.286970         1.407873
 H         0.328286        -2.086668         0.602384
 H        -0.981071        -1.511696        -0.547265
 H        -0.028830         1.963607         1.130617
 H        -0.859930         1.767107        -0.463153
 H        -2.678923         1.996986         0.924460
