19
Iteration:   246
 C        -4.007981        -0.092547         1.720035
 C        -2.535047         0.006726         1.514656
 C        -1.859649        -1.275901         1.038461
 C        -0.361235        -1.140694         1.023061
 C         0.095203         0.026224         0.146511
 O         1.074728        -0.057697        -0.689693
 C        -0.661268         1.278716         0.240495
 C        -1.929670         1.251944         1.179822
 O        -1.697764         0.597082         2.535221
 H        -4.304328        -0.907729         2.410653
 H        -4.379442         0.901059         2.260181
 H        -4.548799        -0.193468         0.812456
 H        -2.170540        -2.106732         1.675764
 H        -2.180003        -1.484647        -0.008256
 H        -0.032814        -1.043230         2.092334
 H         0.237446        -1.951665         0.563691
 H         0.046342         1.967114         0.690916
 H        -0.865212         1.625605        -0.779235
 H        -2.566213         2.176330         1.172614
