19
Iteration:   936
 C        -3.983479        -0.262049         1.707760
 C        -2.504638        -0.137140         1.413060
 C        -1.682094        -1.408362         1.129848
 C        -0.201760        -1.066341         0.952108
 C         0.098893         0.125423         0.064859
 O         0.751453         0.076301        -0.980440
 C        -0.440945         1.395677         0.683261
 C        -1.879569         1.200537         1.207713
 O        -1.964250         0.662127         2.520345
 H        -4.115665        -0.995573         2.558041
 H        -4.360508         0.677091         1.988501
 H        -4.665211        -0.689237         0.895437
 H        -1.869074        -2.197430         1.862687
 H        -2.177544        -1.770321         0.219942
 H         0.246062        -0.917370         1.961249
 H         0.329418        -1.818319         0.469822
 H         0.233639         1.684234         1.384818
 H        -0.461215         2.253280        -0.067913
 H        -2.498727         2.060130         0.947794
