19
Iteration:   119
 C        -3.805250         0.024362         2.214618
 C        -2.380419        -0.102464         1.623969
 C        -1.822786        -1.420970         1.026931
 C        -0.709795        -1.352407        -0.035082
 C         0.026397         0.083049         0.155441
 O         1.085322         0.143229         0.671883
 C        -0.957072         1.174844        -0.270437
 C        -1.824038         1.160655         0.968481
 O        -1.409454         0.823146         2.237255
 H        -4.229230        -0.641687         2.979712
 H        -4.070138         1.121605         2.537894
 H        -4.606937        -0.251581         1.393717
 H        -1.356953        -1.846783         1.919536
 H        -2.687346        -2.042857         0.825524
 H         0.000061        -2.088512         0.062550
 H        -1.128541        -1.378376        -1.120138
 H        -0.605070         2.179319        -0.356008
 H        -1.673106         0.978944        -1.114231
 H        -2.609024         1.982679         0.929983
