19
Iteration:  4487
 C        -3.888851        -0.478534         2.008521
 C        -2.431234        -0.122901         1.647621
 C        -1.483839        -1.320279         1.398712
 C        -0.713881        -1.229797         0.082647
 C         0.117507         0.124815         0.020384
 O         1.306741         0.184858        -0.218268
 C        -0.783995         1.401833         0.149554
 C        -2.002886         1.169618         1.039837
 O        -1.977941         0.868511         2.552121
 H        -3.698591        -1.605361         2.212270
 H        -4.241686         0.044679         2.887381
 H        -4.514809        -0.257177         1.120534
 H        -0.822671        -1.479076         2.322751
 H        -2.061423        -2.214386         1.410763
 H        -0.009781        -1.974903        -0.155262
 H        -1.362448        -1.362329        -0.789400
 H        -0.183004         2.225440         0.426838
 H        -1.138461         1.660463        -0.871655
 H        -2.829705         1.860422         0.721463
