19
Iteration:  4700charge 0 multiplicity 1
 C        -3.803522        -0.533132         1.444102
 C        -2.402684        -0.128494         1.648219
 C        -1.272780        -1.126758         1.693948
 C        -0.520486        -1.364113         0.400675
 C         0.030597        -0.034268        -0.016569
 O         0.899138         0.174569        -0.815831
 C        -0.599236         1.286336         0.614767
 C        -1.975293         1.252021         1.200176
 O        -2.183101         1.066715         2.555887
 H        -4.313434        -0.511735         0.492404
 H        -3.873365        -1.635249         1.622175
 H        -4.429163        -0.043692         2.167427
 H        -0.675514        -0.780356         2.496678
 H        -1.528993        -2.087523         2.238825
 H         0.248907        -2.169806         0.527337
 H        -1.210307        -1.831847        -0.291059
 H         0.188706         1.530175         1.407884
 H        -0.469274         1.876311        -0.256356
 H        -2.744801         1.870381         0.702938
