19
Iteration:  2818
 C        -3.809417        -0.222247         2.091451
 C        -2.348319        -0.170520         1.614693
 C        -1.677034        -1.439939         1.215280
 C        -0.673130        -1.225788         0.047652
 C        -0.026589         0.140484         0.098109
 O         1.152570         0.389540         0.453469
 C        -1.008579         1.172571        -0.209772
 C        -1.955493         1.128985         0.962983
 O        -1.515326         0.774176         2.291947
 H        -3.865227        -1.013028         2.955443
 H        -3.956441         0.788731         2.521889
 H        -4.545805        -0.523313         1.296898
 H        -1.387694        -1.844431         2.168410
 H        -2.437514        -2.195267         0.885967
 H         0.218820        -1.930638         0.278874
 H        -1.314435        -1.354882        -0.840208
 H        -0.587416         2.195258        -0.322078
 H        -1.540696         0.959466        -1.099586
 H        -2.631761         1.985262         1.185509
