19
Iteration:  3144charge 0 multiplicity 1
 C        -3.880562        -0.217289         1.372564
 C        -2.390048        -0.183382         1.430795
 C        -1.492196        -1.381044         1.000360
 C         0.009288        -1.014269         1.226498
 C         0.066403         0.195407         0.191778
 O         0.394725        -0.094601        -0.968934
 C        -0.603973         1.485259         0.531982
 C        -1.844796         1.226719         1.356911
 O        -1.938833         0.576569         2.618097
 H        -4.415105        -0.689441         2.328122
 H        -4.388548         0.731096         1.242831
 H        -4.446866        -0.793168         0.586003
 H        -1.877523        -2.251345         1.628039
 H        -1.747144        -1.677808         0.017231
 H         0.188980        -0.547551         2.261457
 H         0.769931        -1.784637         1.088037
 H        -0.017003         2.310006         0.918821
 H        -1.051277         1.828201        -0.397449
 H        -2.549346         2.090237         1.381648
