19
Iteration:  1648
 C        -3.705108        -0.220189         0.881127
 C        -2.371428         0.015553         1.559994
 C        -1.342964        -1.235140         1.849877
 C        -0.153384        -1.242327         0.800440
 C        -0.027332        -0.007648         0.077477
 O         0.024351        -0.085144        -1.132612
 C        -0.146310         1.130473         1.049804
 C        -1.624531         1.260523         1.203648
 O        -2.367436         1.006863         2.522403
 H        -4.346228        -1.019467         1.368384
 H        -4.221148         0.639751         1.071642
 H        -3.772177        -0.572095        -0.198527
 H        -0.937433        -1.115981         2.892277
 H        -1.740107        -2.332627         1.589752
 H         0.709903        -1.233611         1.388923
 H         0.043621        -2.096636         0.083488
 H         0.169077         0.931796         2.053976
 H         0.277066         1.966890         0.620386
 H        -2.147760         1.954736         0.589923
