19
Iteration:    46
 C        -3.702002        -0.158674         2.349579
 C        -2.437962        -0.015378         1.618360
 C        -1.766415        -1.312790         1.138526
 C        -0.756337        -1.219537        -0.059933
 C         0.051965        -0.016549         0.151375
 O         1.156279        -0.086855         0.598259
 C        -0.785554         1.232048        -0.110217
 C        -2.003846         1.177632         0.727661
 O        -1.638860         0.983333         2.150721
 H        -3.903515        -1.230950         2.655153
 H        -3.913684         0.424448         3.156552
 H        -4.469862         0.048024         1.626266
 H        -1.158474        -1.736140         1.990309
 H        -2.548284        -2.066506         0.887821
 H        -0.066657        -2.156145        -0.044577
 H        -1.332043        -1.160223        -0.942586
 H        -0.206187         2.169156         0.192757
 H        -1.084514         1.383984        -1.126427
 H        -2.635558         2.020462         0.639422
