19
Iteration:   662charge 0 multiplicity 1
 C        -3.904386        -0.274112         2.095203
 C        -2.455354        -0.038443         1.635720
 C        -1.720681        -1.385289         1.261210
 C        -0.719992        -1.274567         0.032795
 C         0.152841         0.010549         0.109833
 O         1.355952         0.213448         0.119878
 C        -0.837166         1.197949         0.012064
 C        -2.046979         1.231140         1.003756
 O        -1.677898         0.894591         2.383472
 H        -4.024454        -1.182503         2.718496
 H        -4.306857         0.656354         2.649188
 H        -4.553169        -0.475502         1.283168
 H        -1.196157        -1.663270         2.212591
 H        -2.419535        -2.271193         1.025004
 H        -0.160885        -2.209269         0.000454
 H        -1.272286        -1.226077        -0.904443
 H        -0.132691         2.090750         0.209534
 H        -1.292620         1.289123        -1.011167
 H        -2.942197         1.945387         0.756203
