19
Iteration:   758charge 0 multiplicity 1
 C        -3.618916        -0.274189         2.423139
 C        -2.406094        -0.064620         1.588336
 C        -1.952206        -1.332958         0.893972
 C        -0.652285        -1.335877         0.030099
 C         0.088555         0.078555         0.142558
 O         1.153930         0.304318         0.710069
 C        -0.971425         1.186231        -0.337250
 C        -1.973913         1.181266         0.884679
 O        -1.507815         0.845175         2.218322
 H        -3.434821        -0.635031         3.447070
 H        -4.070333         0.751809         2.877428
 H        -4.195115        -1.047886         1.956176
 H        -2.099625        -2.266895         1.414101
 H        -2.867432        -1.317713         0.188803
 H         0.037254        -2.016708         0.425449
 H        -0.882360        -1.638211        -1.025678
 H        -0.475503         2.045275        -0.554845
 H        -1.614602         0.723873        -1.125221
 H        -2.732709         2.040669         0.845426
