19
Iteration:  1810charge 0 multiplicity 1
 C        -3.873164        -0.555036         1.546663
 C        -2.401297        -0.058428         1.680421
 C        -1.498069        -1.247830         1.732418
 C        -0.816554        -1.170486         0.317476
 C         0.114710         0.053330         0.051192
 O         1.104436        -0.096524        -0.689336
 C        -0.395293         1.370254         0.592277
 C        -1.848168         1.196530         1.101183
 O        -2.202291         1.113712         2.457621
 H        -4.014411        -1.337943         2.309137
 H        -4.572785         0.235101         1.740399
 H        -3.995987        -1.021192         0.517282
 H        -0.781229        -1.136812         2.496443
 H        -2.026842        -2.113804         1.831683
 H        -0.250698        -2.060700         0.031910
 H        -1.497090        -1.145479        -0.540258
 H         0.331990         1.584477         1.481680
 H        -0.387898         2.147215        -0.147460
 H        -2.487900         1.801920         0.506660
