19
Iteration:  4661
 C        -3.945770        -0.602777         1.646687
 C        -2.472632        -0.165357         1.670735
 C        -1.341905        -1.227541         1.672925
 C        -0.540045        -1.169349         0.464241
 C         0.132731         0.120656        -0.039427
 O         1.066176         0.043579        -0.822984
 C        -0.529769         1.352812         0.526730
 C        -2.035132         1.188439         1.128781
 O        -2.158354         1.032189         2.504943
 H        -4.395983        -0.543006         0.604770
 H        -3.915305        -1.582001         2.089038
 H        -4.575506         0.091176         2.264145
 H        -0.628659        -0.980266         2.543966
 H        -1.704899        -2.215242         1.673403
 H         0.120649        -2.027158         0.345338
 H        -1.285548        -1.319776        -0.400469
 H         0.031147         1.624709         1.398286
 H        -0.408559         2.329552        -0.098559
 H        -2.835278         1.734675         0.593455
