19
Iteration:  2533charge 0 multiplicity 1
 C        -3.847289        -0.541539         1.482616
 C        -2.449807        -0.076504         1.515887
 C        -1.380005        -1.143553         1.647857
 C        -0.598914        -1.254857         0.385826
 C         0.078503         0.072058        -0.027137
 O         0.942029         0.002478        -0.870519
 C        -0.448211         1.381195         0.833183
 C        -1.927163         1.270211         1.186129
 O        -2.173189         0.909016         2.533987
 H        -4.186405        -0.707338         2.504318
 H        -4.636028         0.188035         1.028213
 H        -4.095385        -1.447677         1.007467
 H        -0.675046        -0.868754         2.475445
 H        -1.837012        -2.115524         1.982428
 H         0.302107        -1.905626         0.344386
 H        -1.325439        -1.455970        -0.420255
 H         0.027415         1.304363         1.883710
 H        -0.158964         2.303135         0.313145
 H        -2.709329         1.921703         0.739884
