19
Iteration:  3581
 C        -3.680348        -0.506025         2.286003
 C        -2.406260        -0.145551         1.541120
 C        -1.712402        -1.463563         1.103997
 C        -0.609601        -1.220776         0.030745
 C         0.016498         0.215617         0.078211
 O         1.140069         0.327146         0.434925
 C        -1.006268         1.337573        -0.153198
 C        -2.051525         1.193702         0.956434
 O        -1.603823         0.825463         2.305847
 H        -3.305391        -0.848783         3.247721
 H        -4.166812         0.452583         2.291257
 H        -4.250108        -1.342622         1.780445
 H        -1.124069        -1.754068         2.043364
 H        -2.492043        -2.128166         0.837012
 H         0.242806        -1.914286        -0.032804
 H        -1.128405        -1.102487        -1.036978
 H        -0.508823         2.266856         0.031968
 H        -1.389187         1.394017        -1.180670
 H        -2.902735         1.893575         0.850447
