19
Iteration:   316charge 0 multiplicity 1
 C        -3.982351        -0.246306         1.313792
 C        -2.435599        -0.017101         1.525823
 C        -1.660025        -1.316352         1.174770
 C        -0.100653        -1.175431         1.135335
 C         0.136964         0.009742         0.137336
 O         0.442950        -0.139938        -1.010931
 C        -0.417054         1.317455         0.656162
 C        -1.827908         1.299372         1.228616
 O        -1.905662         0.876888         2.620450
 H        -4.354483        -1.112365         1.879334
 H        -4.601099         0.523767         1.627119
 H        -4.211293        -0.383424         0.208908
 H        -1.906910        -2.114187         1.979726
 H        -2.028520        -1.692383         0.115895
 H         0.230618        -0.933346         2.152137
 H         0.359923        -2.124747         0.782059
 H         0.283326         1.660039         1.420981
 H        -0.346764         2.024433        -0.215114
 H        -2.454478         2.180529         1.006731
