19
Iteration:   415
 C        -3.677835        -0.315622         1.022572
 C        -2.275195        -0.039027         1.478130
 C        -1.517567        -1.328054         1.717084
 C        -0.282538        -1.311885         0.874098
 C        -0.042662         0.013248         0.082997
 O         0.193617         0.023382        -1.122538
 C        -0.205272         1.311548         0.949075
 C        -1.653338         1.260090         1.256543
 O        -2.250241         0.985739         2.534905
 H        -4.269596        -0.653289         1.904421
 H        -4.186331         0.516623         0.761049
 H        -3.817204        -0.942849         0.093935
 H        -1.212632        -1.344641         2.822294
 H        -2.163246        -2.258222         1.498613
 H         0.628951        -1.571776         1.474950
 H        -0.324483        -1.992078         0.079449
 H         0.347426         1.158594         1.856169
 H         0.054831         2.228848         0.494275
 H        -2.193584         1.916221         0.615607
