19
Iteration:  3849charge 0 multiplicity 1
 C        -3.932416        -0.557605         1.803143
 C        -2.443534        -0.173513         1.427121
 C        -1.705164        -1.391225         0.948000
 C        -0.218677        -0.965109         1.006608
 C         0.124206         0.313022         0.102334
 O         0.759410         0.078954        -0.899232
 C        -0.607875         1.578155         0.517619
 C        -1.907229         1.222012         1.294391
 O        -1.869022         0.537005         2.500911
 H        -3.815837        -0.897209         2.841591
 H        -4.446468         0.341096         1.892576
 H        -4.500699        -1.216233         1.102644
 H        -1.983088        -2.233815         1.589681
 H        -1.921998        -1.578158        -0.079034
 H        -0.004975        -0.886604         2.119399
 H         0.475482        -1.704764         0.582707
 H         0.102472         2.381284         0.894694
 H        -0.956151         1.916567        -0.417886
 H        -2.768432         1.987345         1.421178
