19
Iteration:   910
 C        -4.044894        -0.312045         1.828165
 C        -2.580209        -0.109306         1.507558
 C        -1.784797        -1.351031         1.019576
 C        -0.332993        -1.060627         0.875813
 C         0.130742         0.100857         0.020737
 O         1.043647         0.052759        -0.798001
 C        -0.609265         1.471860         0.421437
 C        -1.947091         1.256893         1.207760
 O        -1.750424         0.543168         2.567880
 H        -4.192172        -1.183805         2.489876
 H        -4.608782         0.648130         2.106292
 H        -4.619247        -0.533057         0.928637
 H        -1.895973        -2.077178         1.807347
 H        -2.350339        -1.738708         0.180266
 H         0.000036        -0.793687         1.883497
 H         0.290370        -1.970883         0.460273
 H         0.113048         2.025904         1.160320
 H        -0.727865         2.207850        -0.449944
 H        -2.529408         2.190120         1.310830
