19
Iteration:  4308charge 0 multiplicity 1
 C        -3.691059        -0.333346         2.424270
 C        -2.473976        -0.195229         1.617742
 C        -2.098603        -1.423755         0.814286
 C        -0.557075        -1.249997         0.432177
 C         0.066093         0.295603         0.214003
 O         1.285818         0.501335         0.148274
 C        -0.995051         1.284250        -0.114674
 C        -2.031048         1.110646         0.916331
 O        -1.439281         0.572507         2.200982
 H        -3.528018        -0.369975         3.493176
 H        -4.485544         0.542517         2.208768
 H        -4.246929        -1.311296         2.179282
 H        -2.387319        -2.447939         1.221866
 H        -2.595619        -1.260707        -0.138688
 H         0.003221        -1.692029         1.334471
 H        -0.250809        -1.563518        -0.577945
 H        -0.550051         2.297009        -0.243955
 H        -1.342091         1.054384        -1.124920
 H        -2.624952         1.998575         1.203184
