19
Iteration:  2250
 C        -3.962966        -0.342432         1.667829
 C        -2.472056        -0.061140         1.446044
 C        -1.748465        -1.374095         1.045132
 C        -0.267910        -1.155180         0.960426
 C         0.058594         0.041049         0.058212
 O         0.900823         0.018408        -0.833063
 C        -0.610642         1.402717         0.458628
 C        -1.889999         1.351197         1.280279
 O        -1.853855         0.713069         2.608830
 H        -4.106231        -1.214839         2.290937
 H        -4.447620         0.661220         1.960618
 H        -4.224492        -0.734006         0.701789
 H        -2.003881        -2.173564         1.814333
 H        -2.224721        -1.813434         0.108078
 H        -0.034188        -0.844464         2.014473
 H         0.312688        -2.000240         0.618385
 H         0.272816         2.065706         1.072991
 H        -0.847330         1.983358        -0.429131
 H        -2.586156         2.295839         1.208385
