19
Iteration:  1841
 C        -3.916028        -0.401366         1.744609
 C        -2.488274        -0.039260         1.612538
 C        -1.327470        -1.136364         1.550240
 C        -0.723884        -1.289135         0.070434
 C         0.102038        -0.040342        -0.022622
 O         1.247981        -0.018788        -0.415795
 C        -0.636061         1.129189         0.541087
 C        -2.043165         1.240753         1.065944
 O        -2.103453         1.106370         2.504426
 H        -4.026989        -1.238359         2.444220
 H        -4.607001         0.469473         2.095959
 H        -4.339179        -0.793097         0.779617
 H        -0.496856        -0.784193         2.173149
 H        -1.874813        -2.003730         1.907671
 H        -0.048151        -2.170015         0.045630
 H        -1.461079        -1.315271        -0.696551
 H         0.116792         1.256097         1.374937
 H        -0.367119         1.982650        -0.056131
 H        -2.672227         1.919681         0.548267
