19
Iteration:  3347charge 0 multiplicity 1
 C        -3.784838        -0.727111         1.325818
 C        -2.349899        -0.110594         1.661680
 C        -1.291708        -1.215893         1.885367
 C        -0.727325        -1.245657         0.348524
 C         0.021311         0.143992        -0.055848
 O         0.819294         0.255037        -0.949606
 C        -0.333203         1.308340         0.847612
 C        -1.819792         1.151261         1.204887
 O        -2.308331         1.021483         2.538670
 H        -4.367303        -0.934550         2.206043
 H        -4.318018        -0.013963         0.550645
 H        -3.746989        -1.625673         0.706886
 H        -0.553832        -0.845178         2.601298
 H        -1.745395        -2.236018         2.037977
 H         0.013379        -2.039699         0.163381
 H        -1.603182        -1.519424        -0.249673
 H         0.217119         1.421811         1.723318
 H        -0.083461         2.124729         0.222104
 H        -2.438108         1.888407         0.769908
