19
Iteration:  2428charge 0 multiplicity 1
 C        -3.981732        -0.461783         1.438505
 C        -2.495280        -0.034826         1.524250
 C        -1.597965        -1.249490         1.609106
 C        -0.276354        -1.252443         0.745541
 C         0.223353         0.095668         0.142992
 O         0.595946         0.109696        -1.063023
 C        -0.340860         1.390018         0.767173
 C        -1.834277         1.213262         1.118292
 O        -2.071912         0.823254         2.500619
 H        -4.071067        -1.542494         1.731814
 H        -4.684655        -0.048854         2.053626
 H        -4.268046        -0.236846         0.346054
 H        -1.347138        -1.282378         2.663032
 H        -2.122912        -2.190750         1.359914
 H         0.462615        -1.801709         1.270148
 H        -0.268206        -1.925636        -0.117807
 H         0.325087         1.834183         1.609093
 H        -0.135473         2.114250        -0.054325
 H        -2.513017         2.034697         0.751539
