19
Iteration:   153charge 0 multiplicity 1
 C        -3.845844        -0.045792         2.164751
 C        -2.456224        -0.032342         1.476600
 C        -1.951682        -1.361891         1.083214
 C        -0.661578        -1.379559         0.243269
 C         0.029904         0.016815         0.218891
 O         1.256490         0.195821         0.277943
 C        -0.868108         1.272215        -0.036709
 C        -1.898686         1.213163         0.965081
 O        -1.514950         0.692915         2.230750
 H        -3.653958        -0.381249         3.249867
 H        -4.225434         0.978705         2.160079
 H        -4.545932        -0.729603         1.521680
 H        -1.636423        -1.871437         1.981892
 H        -2.750366        -1.935424         0.714936
 H        -0.021906        -2.257759         0.413873
 H        -1.065564        -1.475245        -0.804343
 H        -0.163701         2.107291         0.171091
 H        -1.257831         1.337617        -1.046961
 H        -2.551596         2.095485         0.914929
