19
Iteration:  1480
 C        -3.914080        -0.419925         1.516596
 C        -2.440669        -0.114677         1.652194
 C        -1.480717        -1.276537         1.648737
 C        -0.643102        -1.351397         0.300925
 C         0.078409         0.036822         0.013747
 O         1.104641        -0.053707        -0.657330
 C        -0.518262         1.409730         0.540187
 C        -1.894376         1.209055         1.184239
 O        -2.092144         1.122963         2.559597
 H        -4.382391        -0.878621         2.348918
 H        -4.575696         0.544195         1.369889
 H        -4.069761        -1.065716         0.685289
 H        -0.712490        -1.233551         2.473089
 H        -2.091299        -2.183987         1.758938
 H        -0.013566        -2.226257         0.382893
 H        -1.223643        -1.598404        -0.598431
 H         0.097804         1.903480         1.311676
 H        -0.690328         2.125850        -0.341547
 H        -2.641556         1.874459         0.676226
