19
Iteration:  1376charge 0 multiplicity 1
 C        -3.838411        -0.319653         2.326320
 C        -2.487403        -0.055321         1.526099
 C        -1.702526        -1.370746         1.202847
 C        -0.740513        -1.301603        -0.058192
 C         0.063981         0.072880         0.200811
 O         1.261641         0.163907         0.354256
 C        -0.776000         1.273456         0.002720
 C        -2.025182         1.253044         0.849187
 O        -1.655155         0.859180         2.189029
 H        -3.617238        -1.005548         3.147709
 H        -4.384893         0.549367         2.643544
 H        -4.621114        -0.826070         1.721719
 H        -1.095238        -1.613311         2.059977
 H        -2.303578        -2.289283         1.087351
 H        -0.024513        -2.135888        -0.176115
 H        -1.453326        -1.153323        -0.923730
 H        -0.132460         2.240619         0.321804
 H        -1.157974         1.414009        -1.036238
 H        -2.680306         2.110853         0.660123
