19
Iteration:    77
 C        -3.615731        -0.235126         2.273815
 C        -2.400527        -0.026160         1.444319
 C        -1.765218        -1.345183         1.109263
 C        -0.821246        -1.402429        -0.067615
 C        -0.108529        -0.069709         0.229958
 O         0.984786         0.064370         0.767774
 C        -0.833664         1.315815        -0.207131
 C        -1.924492         1.289327         0.862922
 O        -1.422261         0.982045         2.132932
 H        -3.841289        -1.306679         2.468198
 H        -3.539210         0.469160         3.112485
 H        -4.528788         0.022674         1.616826
 H        -1.203910        -1.668211         1.932676
 H        -2.521017        -2.044070         0.977976
 H        -0.185707        -2.263251        -0.026349
 H        -1.383283        -1.445657        -0.993487
 H        -0.127471         2.133920        -0.143202
 H        -1.268869         1.164292        -1.166582
 H        -2.609986         2.163062         0.871292
