19
Iteration:   701charge 0 multiplicity 1
 C        -3.723080        -0.121215         2.215819
 C        -2.418082        -0.156108         1.486758
 C        -1.787231        -1.476181         1.144277
 C        -0.676683        -1.249289         0.068725
 C         0.012591         0.098819         0.129919
 O         1.164270         0.166562         0.513481
 C        -0.992598         1.353045        -0.093101
 C        -2.114934         1.163816         0.924780
 O        -1.420176         0.763516         2.211947
 H        -3.508070        -0.585946         3.180881
 H        -4.088681         0.941794         2.080229
 H        -4.577657        -0.607728         1.658431
 H        -1.160969        -1.686255         1.995808
 H        -2.432674        -2.324434         0.965466
 H         0.205713        -1.920040         0.132524
 H        -1.131353        -1.363237        -0.982463
 H        -0.453196         2.280907        -0.152861
 H        -1.404019         1.295049        -1.126301
 H        -2.792748         2.012842         0.920082
