19
Iteration:  3179charge 0 multiplicity 1
 C        -3.918715        -0.436344         1.264978
 C        -2.426521        -0.104516         1.473237
 C        -1.563497        -1.293601         1.322262
 C        -0.055941        -1.017767         1.075681
 C         0.082882         0.173121         0.096919
 O         0.349539        -0.032271        -1.095346
 C        -0.440367         1.448866         0.746980
 C        -1.865466         1.173281         1.255359
 O        -1.944485         0.714297         2.591538
 H        -4.085611        -1.449584         1.894454
 H        -4.452929         0.394131         1.689411
 H        -3.950969        -0.643000         0.134034
 H        -1.855877        -1.779841         2.291321
 H        -1.934774        -1.908006         0.447590
 H         0.310172        -0.673657         2.065308
 H         0.459751        -1.987126         0.751399
 H         0.143424         1.657626         1.579829
 H        -0.358719         2.277332         0.011050
 H        -2.384854         2.158341         1.134625
