19
Iteration:   300
 C        -3.909272        -0.124571         1.428202
 C        -2.468065        -0.024972         1.504576
 C        -1.665754        -1.206341         1.147585
 C        -0.114016        -1.097644         1.194295
 C         0.076239        -0.074921         0.120875
 O         0.598167        -0.139868        -0.993853
 C        -0.529990         1.323801         0.530882
 C        -1.826271         1.229668         1.271200
 O        -1.953756         0.676445         2.576382
 H        -4.298138        -1.039994         1.918856
 H        -4.388584         0.844578         1.906204
 H        -4.115909        -0.054968         0.381171
 H        -1.965202        -2.055241         1.707786
 H        -1.876253        -1.417716         0.136418
 H         0.241784        -0.703759         2.166884
 H         0.422026        -2.048703         1.023554
 H         0.181360         1.889945         1.164997
 H        -0.703912         1.831389        -0.416837
 H        -2.433821         2.132588         1.089949
