19
Iteration:  2781
 C        -3.904461        -0.368437         2.046019
 C        -2.465665        -0.106699         1.558988
 C        -1.675396        -1.416169         1.311967
 C        -0.607678        -1.246889         0.246265
 C         0.015021         0.134118         0.181521
 O         1.254530         0.263088         0.060276
 C        -0.892723         1.336252         0.069598
 C        -2.115009         1.215456         0.937525
 O        -1.558850         0.759458         2.254473
 H        -4.034542        -1.134898         2.750902
 H        -4.223196         0.579850         2.557844
 H        -4.565653        -0.468158         1.218149
 H        -1.154368        -1.673189         2.265479
 H        -2.335093        -2.174591         0.955688
 H         0.251738        -1.845936         0.302857
 H        -0.917660        -1.622462        -0.744524
 H        -0.302274         2.146660         0.335470
 H        -1.238070         1.449143        -1.031540
 H        -2.700763         2.096314         0.923698
