19
Iteration:  3510charge 0 multiplicity 1
 C        -3.947920        -0.407793         1.957250
 C        -2.442312        -0.250897         1.648455
 C        -1.508619        -1.384872         1.399435
 C        -0.495584        -1.190585         0.117543
 C         0.102901         0.151435         0.051761
 O         1.316386         0.327928        -0.205811
 C        -0.909553         1.290064         0.156959
 C        -2.076069         1.130990         1.093412
 O        -1.877622         0.851457         2.469294
 H        -4.349001        -1.413396         2.130493
 H        -4.202992         0.358452         2.781381
 H        -4.569574        -0.050422         1.119232
 H        -0.854159        -1.300806         2.232034
 H        -2.078653        -2.343514         1.276373
 H         0.321049        -1.932191         0.215004
 H        -1.252816        -1.478418        -0.641219
 H        -0.268745         2.239844         0.241678
 H        -1.455300         1.365751        -0.799118
 H        -2.825696         1.911823         0.922860
