19
Iteration:  3190charge 0 multiplicity 1
 C        -3.897623        -0.480649         1.292621
 C        -2.462357        -0.130035         1.508581
 C        -1.558253        -1.337614         1.380704
 C        -0.119749        -1.023922         1.055455
 C         0.085672         0.079428         0.054445
 O         0.351545         0.058115        -1.126360
 C        -0.346686         1.413171         0.806806
 C        -1.819268         1.224798         1.203193
 O        -1.984129         0.819174         2.594602
 H        -4.205024        -1.587680         1.591502
 H        -4.689539         0.204606         1.634776
 H        -4.083343        -0.412985         0.156462
 H        -1.451191        -2.025818         2.252127
 H        -1.985926        -2.006496         0.578548
 H         0.357623        -0.691141         2.003378
 H         0.448018        -1.971817         0.759359
 H         0.208119         1.573921         1.674616
 H        -0.302590         2.338598         0.197180
 H        -2.635596         1.883302         0.803605
