19
Iteration:  2331charge 0 multiplicity 1
 C        -3.794026        -0.277787         1.434711
 C        -2.355701        -0.075125         1.412727
 C        -1.638568        -1.330984         1.203932
 C        -0.146667        -1.115062         1.026773
 C         0.009442         0.125015         0.162844
 O         0.485179        -0.085670        -0.967093
 C        -0.463522         1.432911         0.618832
 C        -1.890810         1.320469         1.251307
 O        -1.986962         0.639945         2.582522
 H        -3.996815        -0.811080         2.390889
 H        -4.380564         0.569310         1.426190
 H        -4.136391        -0.930361         0.575994
 H        -1.884488        -1.948549         2.026178
 H        -2.020897        -1.734099         0.278976
 H         0.266526        -1.033979         2.002129
 H         0.419870        -1.917939         0.537370
 H         0.260612         1.869298         1.410580
 H        -0.471666         2.227023        -0.200293
 H        -2.546385         2.159133         1.139354
