19
Iteration:  1377charge 0 multiplicity 1
 C        -3.831012        -0.320016         2.312389
 C        -2.483851        -0.048008         1.530325
 C        -1.702592        -1.375528         1.209320
 C        -0.753686        -1.295841        -0.054765
 C         0.068293         0.064194         0.195158
 O         1.266348         0.167366         0.346528
 C        -0.777986         1.267508         0.014842
 C        -2.029567         1.252074         0.846513
 O        -1.657479         0.866292         2.191519
 H        -3.618956        -1.027557         3.151197
 H        -4.365510         0.491031         2.612892
 H        -4.628099        -0.804404         1.690666
 H        -1.116735        -1.603129         2.062660
 H        -2.291357        -2.273583         1.118182
 H        -0.015019        -2.150469        -0.197518
 H        -1.451597        -1.174045        -0.915654
 H        -0.140072         2.256154         0.365383
 H        -1.147077         1.400861        -1.035030
 H        -2.682237         2.100181         0.688942
