19
Iteration:  3628charge 0 multiplicity 1
 C        -3.679382        -0.286382         2.291165
 C        -2.392678        -0.203322         1.541016
 C        -1.687447        -1.464536         1.013413
 C        -0.583579        -1.199385        -0.132096
 C        -0.015498         0.133191         0.219460
 O         1.105790         0.458399         0.611637
 C        -1.161643         1.228494        -0.131027
 C        -2.159927         1.130737         0.987504
 O        -1.365582         0.742206         2.172853
 H        -3.371668        -0.267892         3.293989
 H        -4.398777         0.521340         1.974683
 H        -3.990885        -1.229043         2.177656
 H        -1.289241        -1.837417         1.953690
 H        -2.262919        -2.225680         0.501123
 H         0.035540        -2.113410        -0.051969
 H        -1.029171        -1.132789        -1.104533
 H        -0.693934         2.285830        -0.011400
 H        -1.524654         1.186216        -1.135994
 H        -2.992971         1.827699         1.182572
