19
Iteration:  1591charge 0 multiplicity 1
 C        -3.650193        -0.435262         0.905640
 C        -2.383861        -0.049529         1.646897
 C        -1.471163        -1.265376         1.824475
 C        -0.402932        -1.328525         0.744505
 C        -0.113987         0.044052         0.128695
 O         0.234802         0.002777        -1.050089
 C        -0.160741         1.292327         0.930486
 C        -1.689189         1.246090         1.194672
 O        -2.145938         1.071784         2.547145
 H        -4.389130        -0.938208         1.431986
 H        -4.024345         0.542625         0.396469
 H        -3.298249        -0.947126         0.051530
 H        -1.049251        -1.150386         2.853730
 H        -2.034461        -2.223106         1.920025
 H         0.461019        -1.812013         1.165713
 H        -0.735569        -1.934646        -0.141903
 H         0.431352         1.439478         1.879456
 H         0.113285         2.152090         0.203932
 H        -2.326254         1.920967         0.556653
