19
Iteration:  1554charge 0 multiplicity 1
 C        -3.828522        -0.396825         1.246315
 C        -2.429794        -0.032350         1.629678
 C        -1.352696        -1.104784         1.806982
 C        -0.436805        -1.376796         0.578592
 C         0.053659        -0.061467         0.042491
 O         0.528484         0.121332        -1.073668
 C        -0.177176         1.090225         0.988930
 C        -1.740384         1.232297         1.126783
 O        -2.383390         1.106186         2.438010
 H        -4.457983        -0.920147         2.028689
 H        -4.361833         0.510316         1.168120
 H        -3.936154        -1.052517         0.361406
 H        -0.714097        -0.728468         2.582632
 H        -1.783438        -2.030473         2.045861
 H         0.492516        -2.044577         0.800013
 H        -1.028278        -2.028162        -0.094841
 H         0.319393         0.709448         1.975975
 H         0.309406         2.027163         0.560267
 H        -2.111230         2.007987         0.467017
