19
Iteration:  3242
 C        -3.913812        -0.427271         1.347229
 C        -2.488015        -0.078720         1.487855
 C        -1.376162        -1.340125         1.607319
 C        -0.028513        -1.250254         0.733128
 C         0.106239         0.103623         0.149825
 O         0.391535         0.131003        -1.057826
 C        -0.373124         1.321027         0.892477
 C        -1.907595         1.238515         1.067352
 O        -2.168615         0.915405         2.502813
 H        -4.216710        -1.483024         1.383777
 H        -4.494781         0.014710         2.089280
 H        -4.314568        -0.096400         0.381715
 H        -1.037442        -1.548484         2.649493
 H        -1.813522        -2.240950         1.317935
 H         0.709635        -1.565473         1.501988
 H         0.061953        -1.856472        -0.180510
 H         0.129911         1.224962         1.885945
 H        -0.072691         2.257469         0.383059
 H        -2.633448         2.039284         0.806089
