19
Iteration:  1618charge 0 multiplicity 1
 C        -3.625047        -0.323840         0.778764
 C        -2.341240        -0.010072         1.462443
 C        -1.442033        -1.169790         1.877680
 C        -0.245671        -1.408247         0.917299
 C         0.000978        -0.025194         0.081322
 O         0.070064         0.034875        -1.160654
 C        -0.219520         1.231289         0.901243
 C        -1.682714         1.294203         1.335863
 O        -2.211396         0.969519         2.619530
 H        -4.377181        -0.851934         1.532039
 H        -4.105108         0.606482         0.573320
 H        -3.512555        -0.835283        -0.267830
 H        -1.142493        -0.842967         2.886649
 H        -2.001777        -2.170483         2.006187
 H         0.571531        -1.958303         1.465728
 H        -0.417799        -2.186000         0.160251
 H         0.377358         1.300733         1.780830
 H        -0.130382         2.012618         0.182551
 H        -2.234464         2.080814         0.851258
