19
Iteration:  4885charge 0 multiplicity 1
 C        -3.797354        -0.573312         1.244485
 C        -2.446663        -0.047541         1.701264
 C        -1.381568        -1.158728         1.800368
 C        -0.359260        -1.216002         0.583988
 C         0.089734         0.076450        -0.085080
 O         0.609787         0.150648        -1.182672
 C        -0.403180         1.237963         0.775195
 C        -1.903016         1.187124         1.284877
 O        -2.224842         0.952520         2.686983
 H        -4.343652        -1.003399         2.128580
 H        -4.353230         0.311518         0.858551
 H        -3.536578        -1.239753         0.408967
 H        -0.940978        -1.266388         2.736148
 H        -1.844414        -2.178009         1.738856
 H         0.567238        -1.737106         0.998319
 H        -0.776281        -1.825445        -0.236980
 H         0.442596         1.453514         1.490392
 H        -0.308992         2.101651         0.161486
 H        -2.533837         1.953070         0.755499
