19
Iteration:  1725
 C        -3.874122        -0.308586         1.171264
 C        -2.404202        -0.058743         1.543089
 C        -1.441831        -1.239267         1.767001
 C        -0.310812        -1.336675         0.707699
 C         0.126852        -0.002237         0.010378
 O         0.481442        -0.026079        -1.137556
 C        -0.214691         1.263804         0.996637
 C        -1.795163         1.237519         1.132331
 O        -2.289081         1.055097         2.543274
 H        -4.430742        -0.590896         2.082834
 H        -4.356470         0.441028         0.729289
 H        -4.026148        -1.202328         0.492338
 H        -1.057262        -0.934326         2.766144
 H        -1.864953        -2.318315         1.923676
 H         0.544946        -1.681272         1.200650
 H        -0.668532        -1.942567        -0.149728
 H         0.303966         1.182008         1.920774
 H        -0.011439         2.253268         0.719644
 H        -2.428504         1.945916         0.641513
