19
Iteration:  1041
 C        -3.782578        -0.126868         0.938144
 C        -2.329609        -0.137897         1.496029
 C        -1.443929        -1.445956         1.345656
 C         0.109005        -1.115453         1.109851
 C         0.061724         0.092469         0.174942
 O        -0.201984        -0.043711        -1.030237
 C        -0.301919         1.435330         0.841975
 C        -1.757366         1.199612         1.299717
 O        -2.024611         0.693955         2.639437
 H        -4.320246        -1.065496         1.194468
 H        -4.369038         0.663188         1.392899
 H        -3.672041         0.149200        -0.103962
 H        -1.603427        -1.924932         2.361641
 H        -1.724295        -2.020341         0.452363
 H         0.717653        -0.846636         1.998313
 H         0.583351        -1.902425         0.496113
 H         0.228562         1.791138         1.762819
 H        -0.330608         2.198683        -0.009097
 H        -2.446986         2.006467         1.006411
