19
Iteration:  1762charge 0 multiplicity 1
 C        -3.855777        -0.357400         1.215392
 C        -2.467958        -0.029037         1.602195
 C        -1.393622        -1.186784         1.824705
 C        -0.532122        -1.417075         0.570083
 C        -0.030012        -0.056270        -0.100837
 O         0.835897         0.117297        -0.928544
 C        -0.383312         1.204062         0.765001
 C        -1.851853         1.190950         1.196510
 O        -2.212030         1.091638         2.605261
 H        -4.422183        -0.543205         2.153050
 H        -4.331821         0.591215         0.676835
 H        -3.800727        -1.246761         0.619644
 H        -0.742109        -0.758250         2.645804
 H        -1.711077        -2.236032         2.151574
 H         0.439556        -1.954236         0.778508
 H        -0.889367        -2.187609        -0.078519
 H         0.301743         1.200317         1.594169
 H        -0.137154         1.996848         0.004184
 H        -2.393608         1.905352         0.523013
