19
Iteration:  4657
 C        -3.933658        -0.595638         1.673364
 C        -2.452045        -0.167884         1.647999
 C        -1.340025        -1.225977         1.658797
 C        -0.522490        -1.137832         0.442442
 C         0.133914         0.114118        -0.008036
 O         1.080339         0.021808        -0.830552
 C        -0.590092         1.356655         0.555978
 C        -2.050626         1.154911         1.118863
 O        -2.150704         1.082434         2.509734
 H        -4.312830        -0.595114         0.659200
 H        -4.053033        -1.632592         2.020550
 H        -4.485528         0.170794         2.152496
 H        -0.665538        -1.199297         2.547177
 H        -1.768013        -2.282005         1.682425
 H         0.063080        -2.020283         0.227439
 H        -1.150747        -1.297482        -0.460681
 H         0.077746         1.538015         1.436489
 H        -0.512480         2.262172        -0.062849
 H        -2.868757         1.698974         0.631931
