19
Iteration:  1804charge 0 multiplicity 1
 C        -3.862700        -0.527288         1.506359
 C        -2.352500        -0.058376         1.621389
 C        -1.477767        -1.230817         1.723101
 C        -0.784629        -1.150124         0.375808
 C         0.114406         0.069434         0.070608
 O         1.026655        -0.111557        -0.713520
 C        -0.371468         1.329350         0.627311
 C        -1.864412         1.191043         1.100998
 O        -2.193877         1.098111         2.467110
 H        -3.971234        -1.301976         2.289934
 H        -4.698941         0.227152         1.585496
 H        -3.891503        -1.036365         0.550360
 H        -0.828972        -1.206640         2.681004
 H        -2.031130        -2.279334         1.890760
 H        -0.173894        -1.994136         0.022170
 H        -1.589219        -1.044204        -0.432745
 H         0.157048         1.715059         1.452576
 H        -0.339375         2.100195        -0.191632
 H        -2.629745         1.843573         0.565825
