19
Iteration:  4024
 C        -3.997491        -0.503265         1.442574
 C        -2.477917        -0.085438         1.410208
 C        -1.530125        -1.269852         1.277375
 C         0.123634        -1.096456         0.978911
 C         0.119664         0.125365         0.039640
 O         0.268645         0.145154        -1.156097
 C        -0.392165         1.406923         0.817998
 C        -1.917560         1.255997         1.309577
 O        -1.972791         0.645919         2.582644
 H        -4.063644        -1.309774         2.134343
 H        -4.521773         0.361931         1.746943
 H        -4.174240        -0.992275         0.451953
 H        -1.702587        -1.918156         2.223082
 H        -1.770802        -1.817789         0.402228
 H         0.553345        -0.788787         1.986105
 H         0.674172        -1.944739         0.560012
 H         0.173227         1.481186         1.763093
 H        -0.301533         2.382559         0.209290
 H        -2.621444         2.169124         1.140482
