19
Iteration:  4056charge 0 multiplicity 1
 C        -3.814751        -0.426905         1.493458
 C        -2.372143        -0.216695         1.472030
 C        -1.602879        -1.429604         1.103986
 C        -0.080987        -1.017914         0.965596
 C        -0.042892         0.237247         0.157484
 O         0.373072         0.086820        -1.019417
 C        -0.457016         1.549929         0.682815
 C        -1.837973         1.167633         1.301557
 O        -1.904190         0.652885         2.613314
 H        -4.177582        -0.756457         2.473992
 H        -4.358786         0.479686         1.253657
 H        -4.181213        -1.177989         0.711859
 H        -1.825318        -2.473960         1.592336
 H        -1.825844        -1.607445         0.071582
 H         0.148149        -0.669529         2.029080
 H         0.608673        -1.816653         0.706530
 H         0.282210         2.001098         1.358858
 H        -0.815756         2.291755        -0.064034
 H        -2.727642         1.805685         1.011230
