19
Iteration:  2890
 C        -3.583249        -0.418219         2.386460
 C        -2.481357        -0.147267         1.494550
 C        -1.905717        -1.443522         1.087695
 C        -0.744397        -1.213387         0.128819
 C         0.003836         0.242136         0.223564
 O         1.192416         0.288476         0.622645
 C        -0.877406         1.330939        -0.236973
 C        -2.068948         1.149578         0.774465
 O        -1.501727         0.803558         2.075612
 H        -3.102770        -0.826881         3.245999
 H        -4.052778         0.571629         2.842738
 H        -4.201644        -1.148599         1.909934
 H        -1.609114        -2.129906         2.034732
 H        -2.718438        -1.977976         0.601991
 H         0.053121        -1.888238         0.362007
 H        -0.968407        -1.337872        -0.949892
 H        -0.514532         2.306053        -0.164029
 H        -1.165103         1.257261        -1.413084
 H        -2.726043         1.988796         0.854301
