19
Iteration:  2299
 C        -4.146260        -0.229466         1.585654
 C        -2.533925        -0.148771         1.533743
 C        -1.604761        -1.363500         0.880015
 C        -0.078526        -1.041254         1.222855
 C         0.220175         0.152611         0.213359
 O         0.490157        -0.059015        -0.951199
 C        -0.483866         1.426047         0.538387
 C        -1.890239         1.186414         1.200665
 O        -1.754028         0.665597         2.531427
 H        -4.414552        -0.670923         2.569019
 H        -4.408078         0.714061         1.400685
 H        -4.410504        -1.072738         0.877044
 H        -1.960135        -2.266479         1.275497
 H        -1.849926        -1.301964        -0.149920
 H        -0.171867        -0.710402         2.241079
 H         0.639746        -1.888600         1.109318
 H         0.059937         1.923625         1.302141
 H        -0.413962         2.048170        -0.428083
 H        -2.506679         2.003824         1.192058
