19
Iteration:  2270
 C        -3.946187        -0.272205         1.683274
 C        -2.502900        -0.053910         1.372047
 C        -1.652216        -1.251611         0.968864
 C        -0.169238        -0.973719         1.088497
 C         0.083322         0.128231         0.089574
 O         0.769777        -0.149732        -0.895889
 C        -0.580488         1.420953         0.520862
 C        -1.871495         1.243611         1.307422
 O        -1.948565         0.544324         2.545777
 H        -3.808371        -0.682449         2.699246
 H        -4.354812         0.776369         1.803409
 H        -4.506359        -0.938191         1.001119
 H        -2.103012        -2.128455         1.559428
 H        -2.026874        -1.568291        -0.047199
 H         0.006474        -0.598787         2.156441
 H         0.455856        -1.839029         0.832264
 H         0.288630         1.913456         1.118269
 H        -0.729543         2.010822        -0.396224
 H        -2.557167         2.108640         1.273895
