19
Iteration:  1542
 C        -3.980829        -0.428694         1.329864
 C        -2.484085        -0.055665         1.565057
 C        -1.324190        -1.074636         1.774457
 C        -0.510709        -1.416459         0.503236
 C         0.058353        -0.081452         0.034118
 O         0.639514         0.168018        -1.012861
 C        -0.204512         1.065815         0.965367
 C        -1.716623         1.159744         1.157105
 O        -2.309273         1.176380         2.424241
 H        -4.304699        -1.039904         2.263733
 H        -4.507803         0.410493         1.129692
 H        -4.037901        -1.028195         0.348546
 H        -0.660865        -0.611960         2.472074
 H        -1.594542        -1.899383         2.416014
 H         0.405002        -1.952371         0.981022
 H        -0.872979        -1.922957        -0.403370
 H         0.375764         0.980508         1.959679
 H         0.206426         1.977093         0.542431
 H        -2.229522         1.846501         0.517854
