19
Iteration:  4171
 C        -3.991321        -0.401691         2.017390
 C        -2.539308        -0.172147         1.583700
 C        -1.788565        -1.470061         1.019563
 C        -0.301339        -1.231819         0.664896
 C         0.123249         0.170789         0.110323
 O         1.085154         0.421916        -0.627907
 C        -0.753948         1.373268         0.368898
 C        -2.074534         1.191389         1.108695
 O        -1.661725         0.681496         2.471489
 H        -4.200782        -1.476911         2.339819
 H        -4.090988         0.280344         2.831192
 H        -4.656270        -0.094797         1.235823
 H        -1.857172        -2.213639         1.766062
 H        -2.423530        -1.823433         0.135591
 H         0.323959        -1.366164         1.534516
 H         0.124633        -2.015328        -0.012906
 H        -0.040458         2.176009         0.641661
 H        -1.092021         1.602464        -0.694759
 H        -2.800601         2.048054         1.020804
