19
Iteration:   108
 C        -3.811909        -0.059446         2.229878
 C        -2.378261        -0.055399         1.600377
 C        -1.757077        -1.336904         1.103691
 C        -0.726226        -1.325290        -0.087929
 C         0.011675        -0.007507         0.055702
 O         1.024234         0.131925         0.787940
 C        -0.923949         1.196170        -0.320612
 C        -1.905058         1.136973         0.947463
 O        -1.376778         0.853257         2.253346
 H        -3.980260        -0.869598         2.944841
 H        -3.861112         0.937944         2.840128
 H        -4.468405         0.090185         1.298009
 H        -1.434815        -1.932195         1.941222
 H        -2.543770        -1.900882         0.635705
 H        -0.123824        -2.153384        -0.024195
 H        -1.311449        -1.335461        -1.082131
 H        -0.490648         2.158966        -0.485837
 H        -1.514341         0.888425        -1.222126
 H        -2.574056         2.050330         0.966470
