19
Iteration:  4532charge 0 multiplicity 1
 C        -3.862772        -0.473933         1.746268
 C        -2.367025        -0.142505         1.701599
 C        -1.406925        -1.278578         1.533209
 C        -0.727700        -1.273734         0.128010
 C         0.021530         0.052644         0.063510
 O         1.134663         0.266051        -0.330276
 C        -0.715729         1.311862         0.353265
 C        -2.091958         1.142968         0.982873
 O        -1.851780         0.916672         2.506322
 H        -3.901975        -1.609436         1.810003
 H        -4.315579        -0.119717         2.704898
 H        -4.517920         0.040292         0.982847
 H        -0.568513        -1.095095         2.244244
 H        -1.715746        -2.267264         1.947952
 H        -0.167158        -2.202646        -0.117172
 H        -1.410697        -1.187083        -0.734339
 H        -0.147992         2.113074         0.862655
 H        -0.913886         1.732626        -0.611831
 H        -2.910381         1.894816         0.777397
