19
Iteration:   330charge 0 multiplicity 1
 C        -3.939001        -0.310693         1.274624
 C        -2.455464        -0.045849         1.462632
 C        -1.682450        -1.389037         1.294253
 C        -0.144479        -1.147185         1.035894
 C         0.041314         0.010102         0.163368
 O         0.351217        -0.170087        -1.008632
 C        -0.228284         1.453254         0.752930
 C        -1.761207         1.303687         1.223466
 O        -1.959633         0.933174         2.577736
 H        -4.183806        -1.221193         1.930544
 H        -4.492784         0.573429         1.505683
 H        -4.109241        -0.694059         0.259105
 H        -1.846026        -2.164615         2.082391
 H        -2.093109        -1.861450         0.358839
 H         0.517863        -1.092685         1.968969
 H         0.213939        -1.907377         0.437443
 H         0.317319         1.704979         1.747549
 H         0.000824         2.206792         0.023757
 H        -2.436694         2.035048         0.863983
