19
Iteration:  2140charge 0 multiplicity 1
 C        -3.943555        -0.298666         1.999771
 C        -2.441523        -0.092318         1.709410
 C        -1.928699        -1.422150         0.985945
 C        -0.479299        -1.240570         0.470936
 C         0.110226         0.096933         0.237487
 O         1.261837         0.207285        -0.186264
 C        -0.881692         1.275581         0.091079
 C        -2.018242         1.177325         1.060049
 O        -1.555542         0.888112         2.392124
 H        -4.196024        -1.150617         2.654177
 H        -4.448708         0.617983         2.401859
 H        -4.498732        -0.596647         1.099430
 H        -1.902596        -2.258415         1.710552
 H        -2.658437        -1.473844         0.167540
 H         0.214356        -1.861281         1.067941
 H        -0.329015        -1.748451        -0.468919
 H        -0.283061         2.254745         0.116763
 H        -1.122318         1.081157        -0.902222
 H        -2.916076         1.945374         0.998812
