19
Iteration:  3902
 C        -3.975239        -0.426617         1.507350
 C        -2.412515        -0.195385         1.590234
 C        -1.507045        -1.388797         1.146623
 C        -0.015984        -1.046768         0.992995
 C         0.063509         0.186258         0.052043
 O         0.455900         0.231621        -1.153769
 C        -0.459451         1.383950         0.698664
 C        -1.865098         1.094918         1.241480
 O        -2.038060         0.735813         2.651758
 H        -4.278274        -0.898962         2.449980
 H        -4.573407         0.383287         1.293780
 H        -4.125675        -1.168492         0.719706
 H        -1.628839        -2.199558         1.897922
 H        -1.841054        -1.660816         0.209629
 H         0.298761        -0.715107         2.021909
 H         0.536571        -1.999868         0.793824
 H         0.169289         1.766517         1.585948
 H        -0.484520         2.102860        -0.064790
 H        -2.574492         1.903602         1.134383
