19
Iteration:   997charge 0 multiplicity 1
 C        -3.833539        -0.331137         1.116155
 C        -2.348651        -0.070462         1.456382
 C        -1.611697        -1.430246         1.326164
 C        -0.021274        -1.101189         1.041768
 C         0.039021         0.132345         0.064096
 O         0.059406        -0.053939        -1.158049
 C        -0.219988         1.472499         0.876348
 C        -1.704124         1.331172         1.354789
 O        -2.062957         0.696606         2.679301
 H        -4.227384        -1.050117         1.845598
 H        -4.456199         0.577422         1.000053
 H        -3.818014        -0.658072         0.093914
 H        -1.476739        -1.951349         2.300991
 H        -2.009830        -2.080046         0.524616
 H         0.263157        -0.837405         2.062983
 H         0.492708        -2.045525         0.666500
 H         0.562005         1.476710         1.722987
 H        -0.328278         2.404224         0.254685
 H        -2.433448         2.120883         1.125491
