19
Iteration:  3125
 C        -3.953494        -0.217534         1.474436
 C        -2.463311        -0.187857         1.487864
 C        -1.577206        -1.263467         0.975164
 C        -0.079347        -0.872842         1.235493
 C         0.128460         0.175260         0.198077
 O         0.546577        -0.062630        -0.960252
 C        -0.638267         1.417060         0.480747
 C        -1.916678         1.111471         1.276092
 O        -1.800849         0.522782         2.625457
 H        -4.501598        -0.480866         2.438874
 H        -4.481769         0.710888         1.308665
 H        -4.161851        -1.035878         0.728349
 H        -1.860486        -2.266577         1.388862
 H        -1.717651        -1.366742        -0.178964
 H        -0.013943        -0.431811         2.242767
 H         0.409199        -1.859111         1.012008
 H         0.046926         1.988315         1.060785
 H        -0.861475         1.754317        -0.562738
 H        -2.654967         1.945359         1.159079
