19
Iteration:  2940charge 0 multiplicity 1
 C        -3.798223        -0.173061         2.197801
 C        -2.404232        -0.189236         1.564216
 C        -1.812635        -1.480460         1.051487
 C        -0.533703        -1.323387         0.124327
 C         0.086831         0.128941         0.040502
 O         1.186160         0.426584         0.342913
 C        -0.966097         1.227164        -0.036733
 C        -1.985809         1.119118         1.012250
 O        -1.631995         0.800451         2.332244
 H        -3.756336        -0.585403         3.255297
 H        -4.031264         0.831858         2.411124
 H        -4.614438        -0.668059         1.548656
 H        -1.391619        -2.052191         1.837870
 H        -2.639405        -2.041392         0.518898
 H         0.234920        -2.082606         0.381452
 H        -0.747628        -1.631812        -0.945255
 H        -0.475997         2.287388        -0.211828
 H        -1.463872         1.091063        -1.043354
 H        -2.852995         1.800601         0.803281
