19
Iteration:  1862charge 0 multiplicity 1
 C        -3.915926        -0.339001         1.842816
 C        -2.435786        -0.118629         1.580205
 C        -1.407513        -1.216115         1.460700
 C        -0.757849        -1.335014         0.124898
 C         0.045830        -0.009417         0.000614
 O         1.237625         0.018699        -0.253178
 C        -0.599898         1.359467         0.451105
 C        -2.047971         1.200161         0.981646
 O        -1.994534         0.970806         2.429153
 H        -4.084649        -0.971453         2.713167
 H        -4.378694         0.734634         2.049567
 H        -4.446243        -0.801027         0.991676
 H        -0.623892        -0.817755         2.188737
 H        -1.870222        -2.231791         1.785888
 H        -0.092676        -2.233602         0.043618
 H        -1.507014        -1.404949        -0.656638
 H         0.040536         1.779933         1.249570
 H        -0.518061         2.016759        -0.403223
 H        -2.832245         1.880115         0.700811
