19
Iteration:  4289charge 0 multiplicity 1
 C        -3.796409        -0.246257         2.424806
 C        -2.546508        -0.220975         1.570581
 C        -1.980717        -1.348490         0.695831
 C        -0.480654        -1.106604         0.420114
 C         0.089490         0.233952         0.102680
 O         1.304619         0.478120         0.158723
 C        -1.057362         1.204515        -0.149316
 C        -2.033476         1.078737         1.060964
 O        -1.418099         0.530866         2.278239
 H        -3.435410        -0.572096         3.429194
 H        -4.222460         0.775153         2.412956
 H        -4.512455        -0.978408         2.044802
 H        -1.961381        -2.315197         1.369828
 H        -2.673482        -1.507148        -0.118062
 H        -0.062234        -1.359740         1.388772
 H        -0.202560        -1.996706        -0.221607
 H        -0.820384         2.220318        -0.245501
 H        -1.625115         0.826042        -1.033212
 H        -2.830390         1.912768         1.262604
