19
Iteration:   525charge 0 multiplicity 1
 C        -3.907306        -0.562088         1.297197
 C        -2.478113        -0.022478         1.661081
 C        -1.421546        -1.106322         1.719252
 C        -0.667250        -1.312138         0.389048
 C         0.118450        -0.050632         0.069704
 O         0.805699         0.035967        -0.913112
 C        -0.278833         1.274246         0.831550
 C        -1.872348         1.295516         1.113325
 O        -2.124926         1.084192         2.570018
 H        -4.226472        -1.133184         2.253249
 H        -4.638021         0.111664         1.079986
 H        -3.635409        -1.476912         0.600512
 H        -0.728746        -0.905739         2.577595
 H        -1.881229        -2.095458         1.982661
 H         0.023393        -2.193784         0.418789
 H        -1.277208        -1.400306        -0.451744
 H         0.185612         1.237864         1.770485
 H         0.121987         2.109702         0.331855
 H        -2.625821         1.925148         0.722718
