19
Iteration:  3057
 C        -4.050614        -0.380713         1.886333
 C        -2.518235        -0.119114         1.573173
 C        -1.723410        -1.421122         1.164426
 C        -0.275420        -1.306522         0.672582
 C         0.135463         0.083391         0.048621
 O         1.093236         0.237753        -0.661335
 C        -0.584105         1.366995         0.451729
 C        -2.044213         1.211624         1.096047
 O        -1.920181         0.888742         2.471871
 H        -4.124204        -1.186286         2.704413
 H        -4.509114         0.471028         2.323295
 H        -4.337545        -0.703552         0.892949
 H        -1.839213        -2.275930         1.917260
 H        -2.244331        -1.746200         0.241728
 H         0.507783        -1.449018         1.496919
 H        -0.022035        -1.919027        -0.178908
 H        -0.019856         1.787703         1.234189
 H        -0.551061         2.050827        -0.378481
 H        -2.759917         2.020821         0.837274
