19
Iteration:  3942
 C        -3.842761        -0.442184         1.238703
 C        -2.403967        -0.110981         1.495418
 C        -1.430093        -1.298671         1.429866
 C        -0.042906        -1.085318         0.882749
 C        -0.030642         0.152442         0.034364
 O         0.387584         0.099470        -1.156590
 C        -0.544265         1.455868         0.795354
 C        -1.910237         1.256313         1.334568
 O        -1.990101         0.589800         2.676530
 H        -4.082485        -1.350779         1.874312
 H        -4.456392         0.451957         1.702788
 H        -4.042387        -0.507399         0.156291
 H        -1.329375        -1.625348         2.510408
 H        -1.958221        -2.208282         0.880922
 H         0.669020        -0.933261         1.672212
 H         0.353286        -1.880487         0.200067
 H         0.209112         1.683280         1.537503
 H        -0.595250         2.404319         0.211141
 H        -2.552003         2.082787         1.167085
