19
Iteration:  4421
 C        -3.849718        -0.266362         2.139877
 C        -2.451364        -0.181618         1.458389
 C        -1.601492        -1.537210         1.242532
 C        -0.541970        -1.155150         0.185277
 C        -0.037565         0.236416        -0.004039
 O         1.175468         0.275900         0.033457
 C        -0.867972         1.417050         0.041472
 C        -2.019198         1.141757         1.092820
 O        -1.709319         0.661476         2.389479
 H        -3.559004        -0.308910         3.283410
 H        -4.515851         0.583308         2.067146
 H        -4.377076        -1.189291         1.853367
 H        -1.122408        -1.778252         2.267521
 H        -2.239599        -2.299950         0.890257
 H         0.305346        -1.763394         0.307505
 H        -0.939558        -1.573337        -0.774977
 H        -0.249648         2.234043         0.154716
 H        -1.383578         1.558600        -0.902477
 H        -2.791470         1.963840         1.000516
