19
Iteration:   555
 C        -3.891654        -0.336966         1.499663
 C        -2.418245        -0.122503         1.596625
 C        -1.455347        -1.248423         1.675569
 C        -0.651943        -1.288569         0.358724
 C         0.057169         0.004369        -0.070135
 O         1.077364         0.018591        -0.781878
 C        -0.443488         1.351375         0.648097
 C        -1.894717         1.227625         1.205257
 O        -2.212801         0.974892         2.559006
 H        -4.036751        -0.357788         2.608278
 H        -4.560498         0.429505         1.194435
 H        -4.182545        -1.321595         0.908357
 H        -0.819299        -1.129679         2.540256
 H        -1.939038        -2.155813         1.706091
 H         0.196226        -1.991721         0.609215
 H        -1.234920        -1.761792        -0.500470
 H         0.339215         1.537254         1.441319
 H        -0.462137         2.231483         0.061261
 H        -2.620206         1.866204         0.803279
