19
Iteration:  2392
 C        -3.797309        -0.226264         1.371330
 C        -2.366173        -0.127504         1.582544
 C        -1.485181        -1.450729         1.536417
 C        -0.156314        -1.291679         0.830020
 C        -0.037658         0.067830        -0.019220
 O         0.616564         0.117720        -1.063262
 C        -0.454067         1.303602         0.792258
 C        -1.951719         1.184143         1.154206
 O        -2.152317         0.959419         2.561334
 H        -4.087823        -1.266789         1.298108
 H        -4.385451         0.470315         2.125708
 H        -3.989249         0.077188         0.346075
 H        -1.403140        -1.840621         2.608683
 H        -2.254094        -2.123158         1.017123
 H         0.611066        -0.978090         1.625606
 H         0.109960        -2.157780         0.200051
 H         0.113451         1.292441         1.664296
 H        -0.288938         2.124579         0.184867
 H        -2.751297         1.939484         0.754024
