19
Iteration:  1103
 C        -4.047923        -0.396775         1.310200
 C        -2.446825        -0.084744         1.404989
 C        -1.574540        -1.334494         1.187715
 C        -0.052166        -1.056938         1.145129
 C         0.112870         0.072514         0.077801
 O         0.218881         0.014601        -1.138580
 C        -0.213338         1.408410         0.845844
 C        -1.738188         1.301245         1.303832
 O        -1.957144         0.691925         2.563005
 H        -4.501824        -1.170802         1.946797
 H        -4.686549         0.582608         1.590639
 H        -4.276628        -0.779040         0.316368
 H        -1.792031        -1.895143         2.130359
 H        -1.966473        -2.081438         0.415526
 H         0.340610        -0.734331         2.111784
 H         0.591224        -1.983886         0.820181
 H         0.272393         1.677969         1.850705
 H        -0.111059         2.258071         0.301824
 H        -2.416213         2.186340         1.176242
