19
Iteration:  1006
 C        -3.798935        -0.266994         1.040173
 C        -2.370955        -0.065525         1.395434
 C        -1.533743        -1.459711         1.389036
 C        -0.036561        -1.017544         1.112006
 C         0.031041         0.086625         0.034561
 O        -0.024086        -0.028778        -1.179344
 C        -0.263867         1.436429         0.890693
 C        -1.669536         1.328141         1.399959
 O        -2.045250         0.628821         2.639216
 H        -4.232409        -1.105994         1.575423
 H        -4.433414         0.699953         1.235535
 H        -3.926044        -0.652009         0.047637
 H        -1.748044        -1.869031         2.495975
 H        -1.925944        -2.368340         0.785063
 H         0.479902        -0.638753         1.997102
 H         0.557552        -1.995922         0.843411
 H         0.486502         1.577661         1.757562
 H        -0.084896         2.259222         0.317558
 H        -2.248514         2.268457         1.205112
