19
Iteration:   583
 C        -4.031290        -0.237181         1.646931
 C        -2.496809        -0.097896         1.710082
 C        -1.442904        -1.321837         1.558232
 C        -0.561126        -1.276307         0.300831
 C         0.158309        -0.020590         0.097145
 O         1.109854         0.120602        -0.619394
 C        -0.589276         1.234556         0.493509
 C        -1.981011         1.117171         1.087237
 O        -1.993336         0.976246         2.489166
 H        -4.368787        -0.555193         2.641955
 H        -4.593760         0.740927         1.288619
 H        -4.338894        -0.904806         0.884171
 H        -0.802070        -1.241683         2.468885
 H        -1.924957        -2.396195         1.488335
 H         0.080102        -2.123078         0.288344
 H        -1.176804        -1.369301        -0.589633
 H         0.025807         1.753111         1.248148
 H        -0.683387         1.979273        -0.385760
 H        -2.606652         2.074291         0.804719
