19
Iteration:  1168
 C        -4.109084        -0.315268         1.707752
 C        -2.537787        -0.080561         1.561427
 C        -1.747762        -1.290596         1.068224
 C        -0.233022        -1.152518         0.882850
 C         0.085587         0.089158         0.034386
 O         0.997003         0.164257        -0.782037
 C        -0.651399         1.290670         0.397002
 C        -1.880969         1.200928         1.269009
 O        -1.791622         0.687445         2.607103
 H        -4.403010        -0.937381         2.531900
 H        -4.529363         0.771173         1.628014
 H        -4.381804        -0.876054         0.823452
 H        -1.891957        -2.149831         1.650415
 H        -2.250824        -1.598700         0.136243
 H         0.236216        -1.298884         1.839817
 H         0.172214        -2.054414         0.280880
 H         0.159859         2.003727         0.882542
 H        -0.921468         1.716042        -0.543316
 H        -2.436835         2.175074         1.299503
