19
Iteration:  2213charge 0 multiplicity 1
 C        -4.040119        -0.170442         1.718381
 C        -2.507504        -0.125395         1.653437
 C        -1.722254        -1.412805         1.232671
 C        -0.280454        -1.240610         0.736879
 C         0.156932         0.122596         0.098318
 O         1.114232         0.165895        -0.704634
 C        -0.734964         1.287037         0.363043
 C        -2.031310         1.147550         1.123583
 O        -1.809679         0.788932         2.550321
 H        -4.579483        -1.118182         1.907496
 H        -4.450002         0.486077         2.402533
 H        -4.466548         0.253446         0.742063
 H        -1.738574        -2.104259         2.106315
 H        -2.321889        -1.821517         0.401287
 H         0.449649        -1.703567         1.450845
 H        -0.118806        -1.919740        -0.148423
 H        -0.031441         1.928773         0.952466
 H        -0.834029         1.827552        -0.654199
 H        -2.714322         1.880554         0.974263
