19
Iteration:  4460charge 0 multiplicity 1
 C        -3.906463        -0.511741         2.025869
 C        -2.458623        -0.142793         1.669584
 C        -1.614571        -1.384362         1.278260
 C        -0.647810        -1.207963         0.097731
 C         0.125065         0.074113         0.103223
 O         1.304835         0.299461        -0.170102
 C        -0.889428         1.214798         0.258162
 C        -2.134962         1.216915         1.040628
 O        -1.669793         0.992644         2.437931
 H        -3.699375        -1.328605         2.644764
 H        -4.572149         0.326371         2.435220
 H        -4.410943        -0.819814         1.092318
 H        -1.102395        -1.702802         2.161082
 H        -2.253447        -2.313444         1.107815
 H         0.058951        -2.067317        -0.246755
 H        -1.240698        -1.011507        -0.834200
 H        -0.257537         2.170163         0.526273
 H        -1.218597         1.417975        -0.840600
 H        -2.980628         1.842687         0.784182
