19
Iteration:  1071
 C        -3.724945        -0.332802         1.085358
 C        -2.267540        -0.063500         1.466529
 C        -1.518400        -1.339301         1.190323
 C        -0.005613        -1.114616         1.116165
 C        -0.065145         0.060313         0.192491
 O        -0.067635        -0.077164        -1.026824
 C        -0.250864         1.424476         0.859351
 C        -1.721763         1.268927         1.300765
 O        -2.066680         0.787748         2.639606
 H        -3.968609        -1.376773         1.336999
 H        -4.400864         0.513850         1.581359
 H        -3.894241        -0.171504        -0.000308
 H        -1.891415        -2.094070         2.020503
 H        -1.674573        -1.860799         0.176024
 H         0.627932        -0.925060         1.992018
 H         0.557276        -1.831313         0.383566
 H         0.296876         1.709408         1.818798
 H        -0.228230         2.110646         0.131473
 H        -2.520035         1.989732         0.999063
