19
Iteration:  4276
 C        -3.802604        -0.245651         2.383532
 C        -2.525080        -0.162760         1.502367
 C        -1.882567        -1.360933         0.715727
 C        -0.384421        -1.200061         0.498995
 C         0.032457         0.159550         0.036224
 O         1.224253         0.479272         0.131331
 C        -1.137913         1.185937        -0.127539
 C        -2.017103         1.167280         1.154563
 O        -1.465074         0.532370         2.304469
 H        -3.659738        -0.727322         3.348306
 H        -4.163406         0.839499         2.713087
 H        -4.704867        -0.724002         1.863823
 H        -2.098874        -2.431043         1.187970
 H        -2.271827        -1.447701        -0.284663
 H         0.347953        -1.425246         1.346510
 H         0.031588        -1.792575        -0.355636
 H        -0.580326         2.096875        -0.320037
 H        -1.774411         1.009154        -0.991228
 H        -2.504077         2.179065         1.344806
