19
Iteration:  2904
 C        -3.705660        -0.333636         2.464226
 C        -2.478130        -0.147939         1.468609
 C        -1.859602        -1.439899         1.029238
 C        -0.637174        -1.161100         0.133669
 C         0.072161         0.164542         0.290436
 O         1.228531         0.287581         0.548354
 C        -0.960247         1.333978        -0.157030
 C        -2.103778         1.161840         0.801766
 O        -1.473265         0.755722         2.001432
 H        -3.355233        -0.904029         3.406183
 H        -4.261007         0.640790         2.609959
 H        -4.474229        -0.980474         2.030474
 H        -1.501796        -1.964757         2.026527
 H        -2.575889        -2.187969         0.588528
 H         0.166063        -2.002062         0.307480
 H        -1.067556        -1.213323        -0.899201
 H        -0.504265         2.339480        -0.026119
 H        -1.370025         1.006976        -1.272508
 H        -2.905782         1.929297         0.856574
