19
Iteration:  2659charge 0 multiplicity 1
 C        -3.976122        -0.326805         1.550119
 C        -2.480055        -0.109167         1.693545
 C        -1.541354        -1.324266         1.591662
 C        -0.434631        -1.276449         0.433105
 C         0.124097         0.062994         0.071128
 O         1.091196         0.222503        -0.711398
 C        -0.689217         1.269178         0.471857
 C        -1.976289         1.149672         1.139167
 O        -1.949014         0.893779         2.567280
 H        -4.434755        -1.071134         2.229051
 H        -4.566026         0.594851         1.545895
 H        -4.084296        -0.838234         0.507127
 H        -1.039007        -1.366558         2.587882
 H        -2.049436        -2.277610         1.403715
 H         0.277330        -2.052587         0.575799
 H        -0.917810        -1.511499        -0.601131
 H        -0.086204         1.908122         1.063481
 H        -0.842134         1.800788        -0.498490
 H        -2.703336         1.899811         0.870291
