19
Iteration:  2355
 C        -4.054851        -0.358934         1.339330
 C        -2.535843        -0.115621         1.501406
 C        -1.594271        -1.310158         1.416981
 C        -0.108750        -1.119812         0.936904
 C         0.097176         0.065268         0.013269
 O         0.570021        -0.000805        -1.121031
 C        -0.336294         1.381105         0.707973
 C        -1.820039         1.249394         1.334248
 O        -2.020706         0.804168         2.618902
 H        -4.322491        -1.236223         1.963594
 H        -4.741865         0.400797         1.653766
 H        -4.278046        -0.552760         0.263770
 H        -1.599127        -1.757642         2.409797
 H        -1.902760        -2.052303         0.736264
 H         0.588233        -1.016270         1.809184
 H         0.259367        -2.054530         0.496635
 H         0.317233         1.856955         1.432323
 H        -0.452495         2.203465        -0.089171
 H        -2.299240         2.137574         1.121110
