19
Iteration:  4971charge 0 multiplicity 1
 C        -3.859735        -0.703583         1.524356
 C        -2.512894        -0.161258         1.717784
 C        -1.384661        -1.158135         1.751290
 C        -0.566803        -1.176114         0.334346
 C         0.129109         0.077097        -0.068957
 O         0.848577         0.185160        -1.074969
 C        -0.372678         1.268045         0.845978
 C        -1.805038         1.104251         1.222856
 O        -2.275439         1.180892         2.559046
 H        -4.433922        -0.941680         2.420701
 H        -4.499761        -0.121435         0.796587
 H        -3.843713        -1.675998         1.049315
 H        -0.628604        -0.911493         2.496761
 H        -1.679520        -2.273938         1.788624
 H         0.197579        -2.010327         0.449309
 H        -1.185293        -1.584574        -0.475743
 H         0.347390         1.289342         1.776136
 H        -0.332479         2.127424         0.284768
 H        -2.514732         1.545821         0.505749
