19
Iteration:  3602charge 0 multiplicity 1
 C        -3.747592        -0.329827         2.396412
 C        -2.387068        -0.238101         1.634344
 C        -1.604878        -1.460997         1.006588
 C        -0.617085        -1.213458        -0.144509
 C         0.023080         0.239566         0.048119
 O         1.064542         0.413608         0.569106
 C        -0.969965         1.269996        -0.164462
 C        -2.000430         1.135495         0.953128
 O        -1.607023         0.764490         2.268950
 H        -3.442831        -0.319106         3.468956
 H        -4.265226         0.557699         2.116073
 H        -4.251907        -1.335255         2.101552
 H        -1.268705        -1.962729         1.950932
 H        -2.280981        -2.050045         0.408154
 H         0.151720        -1.964121         0.100942
 H        -1.171183        -1.434092        -1.172415
 H        -0.706139         2.263352        -0.130017
 H        -1.446664         0.999860        -1.138339
 H        -2.832554         1.855375         0.936457
