19
Iteration:  3668
 C        -3.741672        -0.473743         2.360555
 C        -2.493341        -0.153723         1.541003
 C        -1.757936        -1.415436         1.010894
 C        -0.584524        -1.243057         0.123691
 C         0.010951         0.235765        -0.003055
 O         1.158123         0.458850         0.449417
 C        -0.979842         1.350589        -0.217266
 C        -2.006017         1.129916         0.972620
 O        -1.512444         0.707307         2.296888
 H        -3.487487        -0.493497         3.434793
 H        -4.623359         0.203907         2.354357
 H        -4.149072        -1.470729         1.966646
 H        -1.399854        -2.131503         1.812209
 H        -2.564858        -1.898541         0.456324
 H         0.269340        -1.831306         0.444897
 H        -1.014786        -1.519282        -0.918975
 H        -0.537109         2.241200         0.097394
 H        -1.322460         1.402644        -1.301683
 H        -2.711082         1.968276         1.051808
