19
Iteration:  3005charge 0 multiplicity 1
 C        -4.051734        -0.321733         1.891388
 C        -2.504711        -0.125729         1.539682
 C        -1.741848        -1.424478         1.282755
 C        -0.426548        -1.301860         0.471777
 C         0.090610         0.187258         0.120931
 O         1.249321         0.272920        -0.301722
 C        -0.790793         1.380003         0.082582
 C        -1.951519         1.203290         1.112292
 O        -1.718991         0.723532         2.473146
 H        -4.138633        -1.352564         2.355141
 H        -4.273100         0.372204         2.660232
 H        -4.744983        -0.236404         1.006844
 H        -1.666880        -1.832224         2.312004
 H        -2.461386        -2.208977         0.858745
 H         0.423595        -1.836285         0.897839
 H        -0.659943        -1.526258        -0.599601
 H        -0.165183         2.323823         0.343562
 H        -1.401415         1.461343        -0.893156
 H        -2.717116         2.016972         1.085702
