19
Iteration:  1473charge 0 multiplicity 1
 C        -3.969778        -0.400933         1.552594
 C        -2.449356        -0.100006         1.663995
 C        -1.487943        -1.236210         1.626275
 C        -0.677648        -1.346535         0.297018
 C         0.098549        -0.030164         0.016639
 O         1.147929         0.009854        -0.604362
 C        -0.562506         1.362014         0.476711
 C        -1.898348         1.269117         1.184189
 O        -2.048060         1.048726         2.560260
 H        -4.393582        -1.011874         2.392203
 H        -4.585574         0.536017         1.252883
 H        -4.098758        -0.995942         0.597572
 H        -0.665672        -1.138039         2.382335
 H        -1.903247        -2.252179         1.954125
 H         0.045257        -2.161801         0.322782
 H        -1.358451        -1.573293        -0.559343
 H         0.105090         1.903506         1.099689
 H        -0.602067         1.896182        -0.446397
 H        -2.633277         1.939830         0.686946
