19
Iteration:  2151
 C        -4.065479        -0.346801         1.958715
 C        -2.454506        -0.096357         1.653639
 C        -1.885015        -1.331231         1.123781
 C        -0.475392        -1.292202         0.536149
 C         0.184895         0.151147         0.219838
 O         1.293385         0.167955        -0.295397
 C        -0.842000         1.307514         0.124621
 C        -2.068151         1.197079         1.062941
 O        -1.552745         0.822137         2.371053
 H        -4.055137        -1.290262         2.503993
 H        -4.551148         0.417190         2.622918
 H        -4.447840        -0.288405         0.951447
 H        -2.111371        -2.152194         1.853089
 H        -2.592752        -1.725636         0.357230
 H         0.299351        -1.830197         1.102284
 H        -0.627545        -1.645960        -0.460774
 H        -0.367990         2.353949         0.355992
 H        -1.172841         1.378815        -0.872547
 H        -2.786064         2.155892         1.009498
