19
Iteration:  4127charge 0 multiplicity 1
 C        -3.919767        -0.434415         1.770439
 C        -2.452123        -0.159417         1.563737
 C        -1.748167        -1.359864         0.963261
 C        -0.208970        -1.031800         0.859959
 C         0.101733         0.156692        -0.012741
 O         0.917449         0.145437        -0.895229
 C        -0.726655         1.442796         0.430479
 C        -1.947852         1.241581         1.364277
 O        -1.851516         0.596919         2.647160
 H        -4.008973        -1.141855         2.641961
 H        -4.541525         0.445212         1.922797
 H        -4.322209        -0.944811         0.907204
 H        -1.811056        -2.146377         1.652504
 H        -2.183839        -1.733420        -0.003025
 H         0.039851        -0.657422         1.841237
 H         0.537365        -1.826408         0.703205
 H        -0.115214         2.248697         0.910891
 H        -1.036166         1.786246        -0.583185
 H        -2.648831         2.100977         1.473200
