19
Iteration:  3750charge 0 multiplicity 1
 C        -4.029420        -0.454204         2.045144
 C        -2.570654        -0.098461         1.568751
 C        -1.769277        -1.415350         1.140502
 C        -0.292834        -1.235948         0.483432
 C         0.039585         0.184737        -0.030576
 O         1.226392         0.450798        -0.225935
 C        -0.950012         1.380029         0.082901
 C        -2.055674         1.172760         1.122244
 O        -1.543075         0.604521         2.409914
 H        -4.075132        -1.494704         2.440173
 H        -4.205055         0.208696         2.833225
 H        -4.762501        -0.240292         1.249064
 H        -1.502728        -2.011278         1.982983
 H        -2.529566        -2.077062         0.660555
 H         0.569448        -1.456709         1.166812
 H        -0.161471        -1.956614        -0.355903
 H        -0.375486         2.256679         0.521596
 H        -1.365685         1.742883        -0.814283
 H        -2.825499         2.028572         1.204441
