19
Iteration:   103
 C        -3.778747        -0.058760         2.215161
 C        -2.370654        -0.030569         1.598279
 C        -1.763870        -1.340252         1.132716
 C        -0.732373        -1.278075        -0.097458
 C         0.052642        -0.024980         0.054937
 O         0.969072         0.125408         0.789469
 C        -0.923601         1.164881        -0.306477
 C        -1.944674         1.187641         0.913979
 O        -1.370542         0.850080         2.256267
 H        -3.908874        -1.013885         2.766078
 H        -3.775599         0.775029         2.880752
 H        -4.533447        -0.010868         1.469056
 H        -1.320497        -2.031363         1.926707
 H        -2.623955        -1.930168         0.646388
 H        -0.070953        -2.245381        -0.051124
 H        -1.334485        -1.366657        -0.993164
 H        -0.304947         2.109893        -0.402433
 H        -1.457851         0.873432        -1.228650
 H        -2.547307         2.078694         0.935576
