19
Iteration:  2375
 C        -3.982154        -0.303633         1.303884
 C        -2.464531        -0.078796         1.675462
 C        -1.588065        -1.331582         1.537162
 C        -0.123742        -1.136700         0.907441
 C         0.109383         0.027714        -0.035019
 O         0.601401         0.139727        -1.144242
 C        -0.454353         1.246645         0.685271
 C        -1.819711         1.142317         1.164280
 O        -2.092464         0.867157         2.659502
 H        -4.350319        -1.333675         1.517629
 H        -4.483569         0.387116         1.875774
 H        -4.124276        -0.036316         0.214196
 H        -1.439819        -1.760639         2.490645
 H        -2.117608        -1.993996         0.873894
 H         0.591848        -1.011379         1.678596
 H         0.173794        -2.089369         0.455502
 H         0.255410         1.215236         1.658463
 H        -0.108399         2.234566         0.168730
 H        -2.541224         1.771355         0.726383
