19
Iteration:  4575
 C        -3.890638        -0.597713         1.763546
 C        -2.488406        -0.133282         1.768972
 C        -1.395651        -1.231015         1.496503
 C        -0.574389        -1.154760         0.176509
 C         0.104270         0.149880         0.008907
 O         1.216796        -0.009535        -0.559883
 C        -0.707879         1.437972         0.350458
 C        -2.030579         1.156223         1.122212
 O        -2.074534         0.961845         2.590796
 H        -4.161207        -1.664613         1.487040
 H        -4.478685        -0.286711         2.629392
 H        -4.501437         0.133323         1.142708
 H        -0.620781        -1.071346         2.280105
 H        -1.762425        -2.229550         1.713782
 H         0.260549        -1.853692         0.200875
 H        -1.266349        -1.322822        -0.643434
 H        -0.039280         2.090103         0.946677
 H        -0.896025         1.856099        -0.694513
 H        -2.865710         1.867426         0.982241
