19
Iteration:  1596charge 0 multiplicity 1
 C        -3.663302        -0.396627         0.864632
 C        -2.384412        -0.019229         1.651010
 C        -1.463196        -1.234828         1.842126
 C        -0.402253        -1.325380         0.771948
 C        -0.113540        -0.007921         0.161368
 O         0.198227         0.024464        -1.047104
 C        -0.135581         1.305632         0.903169
 C        -1.688170         1.242048         1.199211
 O        -2.139389         1.036332         2.564161
 H        -4.561314        -1.016145         1.330733
 H        -4.132769         0.393153         0.363527
 H        -3.177055        -1.018480        -0.017389
 H        -0.965313        -1.118613         2.810661
 H        -2.020932        -2.224713         1.833176
 H         0.591002        -1.789431         1.062052
 H        -0.499429        -1.945455        -0.124457
 H         0.418395         1.433401         1.805683
 H         0.023406         1.912052         0.057178
 H        -2.308534         1.928418         0.663331
