19
Iteration:  1913
 C        -3.933645        -0.325302         1.879780
 C        -2.456930        -0.036962         1.708748
 C        -1.685229        -1.330879         1.313566
 C        -0.639713        -1.227015         0.094274
 C         0.156375         0.035589         0.154489
 O         1.343807         0.087352        -0.077887
 C        -0.888378         1.230945         0.137060
 C        -2.008493         1.264596         1.050901
 O        -1.705195         0.897636         2.448783
 H        -4.107923        -0.753506         2.863010
 H        -4.678969         0.493083         1.731901
 H        -4.234032        -1.110547         1.232711
 H        -1.220273        -1.622683         2.282430
 H        -2.558891        -1.984204         1.048510
 H         0.084575        -2.040033         0.306966
 H        -1.244985        -1.217547        -0.868541
 H        -0.516834         2.253525         0.100421
 H        -1.296214         1.088211        -0.943059
 H        -2.803335         2.087838         1.044109
