19
Iteration:  4341
 C        -3.670305        -0.363894         2.356423
 C        -2.510612        -0.062253         1.519097
 C        -1.839019        -1.365519         0.842326
 C        -0.419274        -1.296204         0.204672
 C        -0.022285         0.159664         0.089703
 O         1.160541         0.334019         0.240571
 C        -1.050396         1.233707        -0.029459
 C        -2.096744         1.253423         1.045610
 O        -1.503157         0.717224         2.281192
 H        -3.329430        -0.177737         3.376463
 H        -4.508208         0.353916         1.912168
 H        -3.899047        -1.445600         2.111449
 H        -1.978712        -2.165669         1.616646
 H        -2.642535        -1.649438         0.158048
 H         0.263270        -1.642289         1.066084
 H        -0.133541        -2.053756        -0.540729
 H        -0.486577         2.175697         0.114230
 H        -1.700039         1.131154        -0.907177
 H        -2.641373         2.236398         1.195798
