19
Iteration:  3672charge 0 multiplicity 1
 C        -3.783424        -0.484172         2.374049
 C        -2.470808        -0.164083         1.530296
 C        -1.771085        -1.384911         1.000019
 C        -0.550285        -1.256239         0.103751
 C         0.027318         0.235297        -0.010916
 O         1.183902         0.465678         0.415973
 C        -0.964557         1.300401        -0.166715
 C        -2.039997         1.118839         0.968095
 O        -1.532622         0.731126         2.291043
 H        -3.458300        -0.634151         3.388246
 H        -4.594238         0.286322         2.306754
 H        -4.146739        -1.394255         2.062032
 H        -1.532427        -2.000119         1.861443
 H        -2.643050        -1.796648         0.530556
 H         0.307824        -1.877357         0.444966
 H        -0.919594        -1.552412        -0.886448
 H        -0.512722         2.316594         0.093592
 H        -1.461966         1.412748        -1.077093
 H        -2.662981         2.000652         1.176580
