19
Iteration:  3129charge 0 multiplicity 1
 C        -3.948139        -0.230397         1.437605
 C        -2.436482        -0.169018         1.466118
 C        -1.609143        -1.311881         0.971953
 C        -0.045763        -0.858377         1.259754
 C         0.169507         0.150242         0.207569
 O         0.493661        -0.062263        -0.970388
 C        -0.673229         1.417658         0.479286
 C        -1.902179         1.120006         1.299311
 O        -1.823215         0.532728         2.639276
 H        -4.295129        -0.415285         2.393188
 H        -4.302634         0.874451         1.326770
 H        -4.142273        -0.963159         0.696125
 H        -1.764374        -2.275903         1.397777
 H        -1.708222        -1.373662        -0.136167
 H        -0.063181        -0.575353         2.289073
 H         0.495143        -1.751840         0.956812
 H         0.063631         2.108317         1.107081
 H        -0.926028         1.788923        -0.535639
 H        -2.607988         1.900305         1.119026
