19
Iteration:  3318
 C        -3.714024        -0.552675         1.194174
 C        -2.328412        -0.120507         1.607977
 C        -1.252351        -1.179912         1.786020
 C        -0.522781        -1.288932         0.423785
 C        -0.007035         0.076046         0.033069
 O         0.690620         0.157122        -0.997493
 C        -0.483039         1.256363         0.843291
 C        -1.889529         1.238334         1.250997
 O        -2.288680         0.984093         2.622861
 H        -4.235031        -1.331430         1.817930
 H        -4.409212         0.247206         1.100269
 H        -3.631911        -1.025332         0.183866
 H        -0.527320        -0.603581         2.499256
 H        -1.595799        -2.112174         2.241670
 H         0.391485        -1.947210         0.554693
 H        -1.141643        -1.664831        -0.402412
 H         0.049303         1.290242         1.915118
 H        -0.074071         2.129189         0.223098
 H        -2.772981         1.903991         0.960247
