19
Iteration:  1242
 C        -3.860230        -0.196727         2.256801
 C        -2.507786        -0.136901         1.559363
 C        -2.035729        -1.273560         0.703530
 C        -0.478500        -1.347251         0.680491
 C         0.165471         0.079751         0.253923
 O         1.272571         0.424031        -0.066277
 C        -0.948025         1.200306         0.016922
 C        -2.107888         1.201945         1.014941
 O        -1.450076         0.580057         2.253535
 H        -4.081356        -1.076799         2.755363
 H        -3.779261         0.686597         3.046596
 H        -4.494093         0.008348         1.437916
 H        -2.514951        -2.221884         1.079697
 H        -2.391960        -1.247070        -0.353887
 H         0.027233        -1.606037         1.578463
 H        -0.028049        -2.174185         0.007642
 H        -0.526819         2.215883         0.236290
 H        -1.308568         1.133459        -1.115838
 H        -2.624376         2.166563         1.287663
