19
Iteration:  4606charge 0 multiplicity 1
 C        -3.903577        -0.555073         1.735107
 C        -2.480330        -0.117391         1.555316
 C        -1.400231        -1.235214         1.657434
 C        -0.579173        -1.316350         0.301886
 C         0.049400         0.076817        -0.059528
 O         1.101165         0.249171        -0.573822
 C        -0.621409         1.289055         0.487522
 C        -1.978969         1.197998         1.086117
 O        -2.029926         0.956718         2.462613
 H        -4.311662        -1.573009         1.354500
 H        -3.943500        -0.687174         2.800933
 H        -4.543997         0.331815         1.495995
 H        -0.819444        -1.028329         2.608471
 H        -1.748998        -2.182890         1.895286
 H         0.108347        -2.074690         0.051041
 H        -1.400579        -1.649202        -0.387241
 H        -0.013075         1.759154         1.214844
 H        -0.631997         2.048949        -0.434632
 H        -2.721077         1.973891         0.787129
