19
Iteration:  4008
 C        -3.898956        -0.464712         1.381084
 C        -2.391040        -0.132760         1.469278
 C        -1.399953        -1.339062         1.283148
 C         0.046049        -1.007053         0.913415
 C        -0.001345         0.174552        -0.006903
 O         0.288797         0.071481        -1.145839
 C        -0.407618         1.380952         0.900594
 C        -1.846928         1.258513         1.287137
 O        -2.120083         0.719765         2.620360
 H        -4.206358        -1.466237         1.892900
 H        -4.474871         0.304255         2.001140
 H        -4.408593        -0.521089         0.408580
 H        -1.358874        -1.951805         2.220614
 H        -1.814966        -2.126446         0.533652
 H         0.681790        -0.820954         1.762543
 H         0.361185        -1.967100         0.440448
 H         0.226201         1.387915         1.803604
 H        -0.304842         2.287733         0.337138
 H        -2.489390         2.051483         1.033704
