19
Iteration:  1202charge 0 multiplicity 1
 C        -3.937867        -0.331105         1.987260
 C        -2.564523        -0.101258         1.494381
 C        -1.911109        -1.367504         0.858836
 C        -0.390574        -1.130552         0.745214
 C         0.140613         0.163997         0.032964
 O         1.252668         0.063685        -0.446586
 C        -0.821339         1.404956         0.200456
 C        -1.935917         1.271438         1.240149
 O        -1.711149         0.632854         2.517203
 H        -4.041043        -1.149104         2.743648
 H        -4.380941         0.495694         2.611671
 H        -4.672256        -0.466406         1.152314
 H        -2.027418        -2.161291         1.567983
 H        -2.390702        -1.617014        -0.098884
 H        -0.144865        -0.956219         1.806478
 H         0.189282        -1.976147         0.283681
 H        -0.119823         2.338242         0.203003
 H        -1.309356         1.531604        -0.732729
 H        -2.559153         2.170517         1.400935
