19
Iteration:  3083charge 0 multiplicity 1
 C        -3.943488        -0.447881         1.747804
 C        -2.526543        -0.059380         1.417476
 C        -1.749785        -1.290190         1.080853
 C        -0.292682        -1.127214         0.893856
 C         0.133041         0.083775         0.101271
 O         0.953472         0.081927        -0.841880
 C        -0.547930         1.403823         0.489293
 C        -1.949750         1.216619         1.232179
 O        -1.943701         0.726471         2.567959
 H        -3.836669        -0.864147         2.707910
 H        -4.543790         0.464203         1.864532
 H        -4.156343        -1.163920         0.960008
 H        -1.807904        -1.975565         1.901336
 H        -2.173178        -1.802172         0.150469
 H         0.140044        -0.979757         1.859839
 H         0.244858        -1.949720         0.355949
 H         0.018508         2.148610         1.161804
 H        -0.788863         2.018372        -0.445577
 H        -2.589661         2.092518         1.082991
