19
Iteration:   764
 C        -3.627887        -0.258974         2.444139
 C        -2.383088        -0.056076         1.607170
 C        -1.945378        -1.339549         0.840873
 C        -0.564734        -1.303276         0.071527
 C         0.036284         0.049443         0.179624
 O         1.133511         0.279748         0.657913
 C        -0.978850         1.144612        -0.274175
 C        -2.040582         1.235523         0.852947
 O        -1.486561         0.833654         2.205551
 H        -3.365804        -0.705770         3.437946
 H        -4.052769         0.678650         2.700124
 H        -4.478970        -0.848411         1.978694
 H        -2.170777        -2.261655         1.429753
 H        -2.713583        -1.310576         0.084962
 H         0.087685        -2.145481         0.484278
 H        -0.718635        -1.461394        -1.039374
 H        -0.419106         2.157563        -0.613349
 H        -1.545468         0.705638        -1.114935
 H        -2.757194         2.006760         0.980446
