19
Iteration:  2238
 C        -3.997534        -0.346333         1.598464
 C        -2.500121        -0.066341         1.625707
 C        -1.807321        -1.328129         1.130683
 C        -0.274109        -1.201023         0.885630
 C         0.090404         0.077330         0.098307
 O         0.929997         0.098639        -0.805835
 C        -0.610668         1.365046         0.456858
 C        -1.895332         1.208718         1.220782
 O        -1.774877         0.765798         2.541650
 H        -4.246662        -1.190770         2.246627
 H        -4.672932         0.432464         2.071699
 H        -4.454577        -0.431443         0.621858
 H        -2.016647        -2.165492         1.877401
 H        -2.296477        -1.528577         0.129522
 H         0.299151        -1.053254         1.859651
 H         0.173407        -2.113846         0.468189
 H         0.227884         2.118845         0.973589
 H        -0.785543         1.796078        -0.543844
 H        -2.627118         2.072395         1.100141
