19
Iteration:  3486charge 0 multiplicity 1
 C        -3.979594        -0.507823         1.711501
 C        -2.430239        -0.144714         1.658789
 C        -1.512796        -1.318226         1.469541
 C        -0.498274        -1.266726         0.256017
 C         0.101190         0.099117         0.095980
 O         1.166223         0.339445        -0.390435
 C        -0.871170         1.300844         0.250804
 C        -2.054787         1.211292         1.121936
 O        -1.769951         0.849064         2.538054
 H        -3.999986        -1.537057         1.944279
 H        -4.493487         0.055196         2.555067
 H        -4.639491        -0.376741         0.883266
 H        -0.868327        -1.214700         2.300021
 H        -2.093248        -2.230976         1.432103
 H         0.205582        -2.086748         0.334466
 H        -1.157067        -1.419816        -0.574810
 H        -0.126562         2.135072         0.645088
 H        -1.135180         1.643401        -0.758888
 H        -2.928821         1.822560         0.891962
