19
Iteration:   874
 C        -3.943401        -0.214288         1.878743
 C        -2.423981        -0.073680         1.580797
 C        -1.828520        -1.216941         0.849263
 C        -0.366224        -1.226458         0.765204
 C         0.053514         0.100480         0.143244
 O         1.101560         0.236699        -0.459454
 C        -0.872448         1.193673         0.125186
 C        -1.919767         1.175802         1.228540
 O        -1.661642         0.618911         2.618134
 H        -4.167186        -1.012437         2.568692
 H        -4.184845         0.657556         2.499787
 H        -4.430279        -0.405548         0.931545
 H        -2.199685        -2.215821         1.235131
 H        -2.161304        -1.148000        -0.204052
 H        -0.006642        -1.517775         1.783809
 H         0.063465        -1.961859         0.044663
 H        -0.207466         2.198361         0.057417
 H        -1.417263         1.076501        -0.771130
 H        -2.560940         2.056162         1.254728
