19
Iteration:  2773
 C        -3.846902        -0.340429         2.045898
 C        -2.483374        -0.121579         1.540503
 C        -1.680337        -1.433925         1.267217
 C        -0.543833        -1.190422         0.262297
 C         0.040607         0.141207         0.126175
 O         1.257431         0.195504        -0.007180
 C        -0.874920         1.310010         0.122881
 C        -2.104392         1.208479         0.941415
 O        -1.658064         0.816303         2.343366
 H        -4.018001        -1.206695         2.764787
 H        -4.261858         0.617664         2.573056
 H        -4.552948        -0.551404         1.238520
 H        -1.243566        -1.779110         2.209329
 H        -2.387259        -2.227079         0.977681
 H         0.332779        -1.857386         0.594176
 H        -0.921294        -1.366184        -0.786246
 H        -0.390837         2.246280         0.305931
 H        -1.149779         1.375858        -0.943860
 H        -2.918635         1.964922         0.802498
