19
Iteration:   858
 C        -3.892640        -0.151154         2.007646
 C        -2.491626        -0.100002         1.612580
 C        -1.931285        -1.299376         0.785677
 C        -0.353486        -1.276646         0.689341
 C         0.139807         0.071187         0.196341
 O         1.239233         0.308828        -0.293957
 C        -1.017953         1.194293         0.005881
 C        -1.940255         1.256449         1.215270
 O        -1.595659         0.581629         2.516102
 H        -4.131164        -1.040640         2.638711
 H        -4.268834         0.737501         2.549279
 H        -4.522891        -0.212195         1.078184
 H        -2.288530        -2.243313         1.170632
 H        -2.441470        -1.160484        -0.195976
 H         0.200787        -1.382840         1.614487
 H         0.015594        -2.007417        -0.036161
 H        -0.608359         2.080738        -0.234318
 H        -1.674625         0.758546        -0.836801
 H        -2.561696         2.166454         1.339172
