19
Iteration:  4957charge 0 multiplicity 1
 C        -3.908359        -0.679237         1.443151
 C        -2.359110        -0.104063         1.671317
 C        -1.254484        -1.197664         1.711697
 C        -0.561358        -1.282536         0.387477
 C         0.071228         0.064325        -0.044297
 O         0.762444         0.239299        -1.040747
 C        -0.364462         1.206733         0.879482
 C        -1.926823         1.127854         1.130717
 O        -2.262009         1.152402         2.579709
 H        -4.246691        -0.487944         2.417405
 H        -4.562527        -0.061671         0.740749
 H        -3.880671        -1.733531         1.280678
 H        -0.559788        -0.997821         2.598036
 H        -1.710843        -2.109384         2.099881
 H         0.290041        -1.938008         0.463262
 H        -1.186119        -1.656304        -0.437207
 H         0.045371         1.375127         1.847310
 H        -0.018109         2.161581         0.412723
 H        -2.415864         1.853007         0.563036
