19
Iteration:  3771
 C        -3.883320        -0.404036         1.912182
 C        -2.501841        -0.165395         1.538936
 C        -1.750905        -1.445375         1.098861
 C        -0.332945        -1.132182         0.634582
 C         0.067905         0.192610         0.138680
 O         1.113198         0.404236        -0.463446
 C        -0.938691         1.357251         0.200901
 C        -1.991592         1.206252         1.166626
 O        -1.682767         0.593624         2.466191
 H        -4.101663        -1.455685         2.139761
 H        -4.006623         0.218553         2.759722
 H        -4.546935        -0.064065         1.138510
 H        -1.668360        -2.159038         1.931033
 H        -2.231559        -2.041720         0.372553
 H         0.429398        -1.361440         1.432011
 H        -0.079215        -1.857786        -0.205486
 H        -0.441171         2.376040         0.205141
 H        -1.414941         1.312403        -0.726059
 H        -2.696296         2.044576         1.401199
