19
Iteration:  3836
 C        -3.943814        -0.490918         1.836380
 C        -2.551965        -0.176678         1.494286
 C        -1.705030        -1.297976         0.889839
 C        -0.207393        -0.960256         1.035637
 C         0.143014         0.199123         0.063184
 O         0.886867         0.178345        -0.900341
 C        -0.703213         1.468631         0.397721
 C        -1.944522         1.208031         1.271006
 O        -1.817511         0.485995         2.585663
 H        -3.936570        -1.206964         2.673959
 H        -4.578472         0.307970         2.079034
 H        -4.416928        -1.069230         1.066403
 H        -1.831171        -2.200500         1.540107
 H        -2.053626        -1.485751        -0.063671
 H        -0.009791        -0.572783         2.066714
 H         0.400562        -1.896540         0.832637
 H        -0.085427         2.260816         0.966442
 H        -1.009475         1.935384        -0.490853
 H        -2.491479         2.172148         1.273698
