19
Iteration:  1803charge 0 multiplicity 1
 C        -3.859761        -0.516420         1.500074
 C        -2.355667        -0.059226         1.612997
 C        -1.469353        -1.232084         1.723047
 C        -0.773674        -1.149393         0.384497
 C         0.114200         0.065183         0.071984
 O         1.011657        -0.112506        -0.717037
 C        -0.372826         1.324848         0.633690
 C        -1.867355         1.194385         1.094894
 O        -2.190379         1.095411         2.472842
 H        -3.974083        -1.295640         2.291304
 H        -4.663881         0.183546         1.543276
 H        -3.892157        -1.052619         0.531611
 H        -0.843147        -1.213882         2.676653
 H        -2.020710        -2.265825         1.887812
 H        -0.163981        -1.978128         0.043160
 H        -1.620247        -1.024393        -0.404290
 H         0.149116         1.754284         1.468268
 H        -0.319403         2.083653        -0.183731
 H        -2.640331         1.841720         0.576842
