19
Iteration:   725
 C        -3.692134        -0.220094         2.364122
 C        -2.414397        -0.068003         1.517887
 C        -1.812123        -1.376801         1.033119
 C        -0.645572        -1.323391         0.009309
 C        -0.072360         0.028437         0.231852
 O         1.063286         0.273220         0.635134
 C        -0.951406         1.227456        -0.202092
 C        -1.985240         1.259563         0.913807
 O        -1.408675         0.778017         2.118410
 H        -3.300867        -0.621523         3.284652
 H        -4.425609         0.676940         2.233975
 H        -4.310845        -0.979146         1.909195
 H        -1.463299        -2.010077         1.843385
 H        -2.646760        -1.930650         0.488346
 H         0.163711        -1.983877         0.128162
 H        -1.074747        -1.419622        -0.986683
 H        -0.261588         1.981104        -0.231583
 H        -1.419457         1.289382        -1.206860
 H        -2.694569         2.138654         0.872214
