19
Iteration:  4150
 C        -3.945379        -0.395952         1.882731
 C        -2.432586        -0.210801         1.615797
 C        -1.718760        -1.327887         1.028169
 C        -0.252497        -1.128866         0.749990
 C         0.022803         0.228667         0.033661
 O         0.997067         0.194386        -0.695997
 C        -0.841667         1.431723         0.365420
 C        -2.005378         1.158346         1.205732
 O        -1.722891         0.663852         2.541134
 H        -4.048391        -1.431947         2.408373
 H        -4.438791         0.400761         2.393729
 H        -4.419362        -0.472719         0.908066
 H        -1.823145        -2.241001         1.479397
 H        -2.179561        -1.454394        -0.017424
 H         0.407193        -1.259565         1.592252
 H         0.168003        -1.947255         0.151328
 H        -0.126011         1.913745         1.145516
 H        -0.916916         2.064468        -0.517670
 H        -2.781938         1.915034         1.133807
