19
Iteration:  2938charge 0 multiplicity 1
 C        -3.798732        -0.166334         2.230532
 C        -2.412130        -0.193854         1.549267
 C        -1.816713        -1.454850         1.047036
 C        -0.526577        -1.314563         0.102170
 C         0.080150         0.116175         0.056855
 O         1.192036         0.427264         0.358885
 C        -0.972899         1.227564        -0.028842
 C        -1.991347         1.121114         0.984008
 O        -1.629894         0.790087         2.318197
 H        -3.718601        -0.599421         3.303645
 H        -3.992219         0.859377         2.382421
 H        -4.547322        -0.671248         1.569819
 H        -1.354072        -2.115129         1.834887
 H        -2.625334        -2.073491         0.544340
 H         0.273719        -2.092254         0.435316
 H        -0.797204        -1.613230        -0.945405
 H        -0.484114         2.260682        -0.150493
 H        -1.449510         1.055228        -1.111188
 H        -2.880091         1.780754         0.815025
