19
Iteration:  3642charge 0 multiplicity 1
 C        -3.634361        -0.394203         2.300786
 C        -2.348652        -0.204625         1.500297
 C        -1.711875        -1.472712         1.011514
 C        -0.641658        -1.227685         0.011514
 C        -0.049797         0.264678         0.207967
 O         1.066663         0.429641         0.570719
 C        -1.069598         1.302922        -0.114902
 C        -2.078604         1.164348         0.956528
 O        -1.407201         0.695951         2.130157
 H        -3.562803        -0.147764         3.410136
 H        -4.395250         0.348539         2.038153
 H        -4.219423        -1.353986         2.055507
 H        -1.239737        -1.995625         1.858948
 H        -2.699319        -2.056375         0.722317
 H         0.269661        -1.833394         0.066539
 H        -1.119618        -1.230015        -0.926490
 H        -0.613869         2.363886        -0.173150
 H        -1.636628         0.961449        -1.098523
 H        -2.755069         2.029604         1.149458
