19
Iteration:  4627
 C        -3.824562        -0.487123         1.755202
 C        -2.368905        -0.116478         1.733712
 C        -1.404375        -1.354641         1.586983
 C        -0.600805        -1.301343         0.324846
 C         0.081883         0.053012        -0.011908
 O         1.058239         0.238548        -0.660790
 C        -0.584565         1.354766         0.545911
 C        -2.014647         1.125482         1.022371
 O        -2.171707         1.084210         2.460238
 H        -3.999081        -1.154512         0.832530
 H        -4.124562        -1.160382         2.532929
 H        -4.497004         0.369295         1.814272
 H        -0.635114        -1.560159         2.404491
 H        -1.962043        -2.236981         1.713931
 H         0.145757        -2.058580         0.371718
 H        -1.135589        -1.596186        -0.637389
 H         0.112538         1.592794         1.302512
 H        -0.465281         2.098015        -0.360893
 H        -2.896798         1.558572         0.527454
