19
Iteration:   766charge 0 multiplicity 1
 C        -3.631832        -0.261933         2.447343
 C        -2.376397        -0.055582         1.606960
 C        -1.948083        -1.340185         0.826193
 C        -0.544592        -1.301108         0.089893
 C         0.024536         0.046644         0.190816
 O         1.127463         0.274358         0.643506
 C        -0.979351         1.135184        -0.255112
 C        -2.051938         1.242057         0.853809
 O        -1.478980         0.833362         2.200762
 H        -3.324274        -0.752302         3.419203
 H        -4.103325         0.772205         2.662612
 H        -4.511946        -0.784917         1.993115
 H        -2.143408        -2.225313         1.421815
 H        -2.679802        -1.340193         0.048993
 H         0.091775        -2.127426         0.474174
 H        -0.696989        -1.443369        -1.071683
 H        -0.455789         2.131367        -0.591199
 H        -1.528812         0.716121        -1.166230
 H        -2.765591         2.038329         0.992055
