19
Iteration:  2337
 C        -3.843745        -0.328815         1.412736
 C        -2.363374        -0.029119         1.417697
 C        -1.623726        -1.327528         1.258424
 C        -0.133084        -1.131015         0.982175
 C         0.054021         0.115926         0.119410
 O         0.497196        -0.087619        -0.988807
 C        -0.449066         1.472693         0.630669
 C        -1.855263         1.330914         1.271657
 O        -2.021824         0.643631         2.598375
 H        -4.113827        -0.882090         2.313268
 H        -4.608215         0.587338         1.509569
 H        -4.200167        -0.812275         0.526784
 H        -1.816055        -2.000996         2.178888
 H        -2.197630        -1.974340         0.495629
 H         0.301672        -1.012279         2.032818
 H         0.437756        -1.909903         0.465357
 H         0.317190         1.721887         1.417216
 H        -0.478914         2.169834        -0.153922
 H        -2.551254         2.252572         1.113541
