19
Iteration:  3675charge 0 multiplicity 1
 C        -3.799601        -0.475465         2.374004
 C        -2.453351        -0.166494         1.537358
 C        -1.782993        -1.364757         1.002057
 C        -0.524771        -1.253453         0.083993
 C         0.051591         0.222421         0.002706
 O         1.189338         0.467742         0.387948
 C        -0.959700         1.282103        -0.118834
 C        -2.059942         1.118987         0.971097
 O        -1.546471         0.743001         2.281338
 H        -3.427113        -0.702137         3.417311
 H        -4.518011         0.311628         2.278732
 H        -4.224933        -1.492309         2.058653
 H        -1.618731        -1.945137         1.911351
 H        -2.719722        -1.849330         0.488273
 H         0.292516        -1.893526         0.418127
 H        -0.810160        -1.585044        -0.882887
 H        -0.493721         2.297783         0.055026
 H        -1.605840         1.401415        -1.072970
 H        -2.651741         2.018083         1.186802
