19
Iteration:   396
 C        -3.828725        -0.166435         1.059961
 C        -2.415072        -0.072534         1.599958
 C        -1.470653        -1.311668         1.657964
 C        -0.056713        -1.257017         0.846178
 C         0.092495         0.019750         0.102057
 O         0.133860         0.010781        -1.126209
 C        -0.160840         1.203938         0.966953
 C        -1.762020         1.153340         1.160977
 O        -2.239258         0.992804         2.536173
 H        -4.576594        -0.507983         1.845606
 H        -4.134692         0.809065         0.679139
 H        -3.908016        -0.849230         0.250990
 H        -1.342470        -1.562350         2.753702
 H        -1.915916        -2.230457         1.176391
 H         0.844991        -1.306882         1.533536
 H         0.066376        -2.074594         0.188805
 H         0.186878         1.177677         2.055544
 H         0.111921         2.103915         0.432770
 H        -2.324239         1.835462         0.560968
