19
Iteration:  1422charge 0 multiplicity 1
 C        -3.935997        -0.307432         1.836320
 C        -2.404913        -0.120057         1.728096
 C        -1.503673        -1.412193         1.487512
 C        -0.714657        -1.260840         0.063428
 C         0.045273         0.099372         0.029822
 O         1.266499        -0.042251        -0.073652
 C        -0.732175         1.367802         0.148569
 C        -2.028551         1.233615         1.043883
 O        -1.876687         1.030568         2.465795
 H        -4.138412        -1.177012         2.524992
 H        -4.403351         0.544126         2.053191
 H        -4.291619        -0.654176         0.827505
 H        -0.729956        -1.594503         2.176629
 H        -2.082356        -2.309270         1.491245
 H         0.112250        -2.074764         0.095086
 H        -1.376570        -1.326862        -0.796452
 H        -0.080347         2.409057         0.208369
 H        -1.143110         1.391151        -0.908082
 H        -2.654750         2.061129         0.802870
