19
Iteration:  4591
 C        -3.971158        -0.514887         1.780994
 C        -2.455869        -0.145794         1.582486
 C        -1.345319        -1.147234         1.572567
 C        -0.614288        -1.226433         0.281540
 C         0.122505         0.064014         0.000303
 O         1.178190         0.089544        -0.593090
 C        -0.711201         1.395644         0.439783
 C        -2.101039         1.208390         1.101276
 O        -1.988522         0.858364         2.524533
 H        -3.986758        -1.493351         1.360486
 H        -4.149504        -0.585336         2.878702
 H        -4.675586         0.011593         1.128110
 H        -0.626287        -0.751417         2.276981
 H        -1.779483        -2.192100         1.843881
 H         0.142810        -2.058274         0.414315
 H        -1.198271        -1.370153        -0.681639
 H        -0.057668         1.974621         1.184020
 H        -0.783393         2.065604        -0.400587
 H        -2.860365         1.910699         0.763443
