19
Iteration:   111charge 0 multiplicity 1
 C        -3.820549        -0.035213         2.233473
 C        -2.381101        -0.074903         1.608102
 C        -1.759744        -1.346562         1.075382
 C        -0.737671        -1.341050        -0.087107
 C        -0.008810         0.017185         0.069904
 O         1.054859         0.134236         0.774062
 C        -0.931397         1.192019        -0.322713
 C        -1.874440         1.130885         0.961586
 O        -1.386420         0.852168         2.245950
 H        -4.071011        -0.824290         3.042033
 H        -3.940932         0.886348         2.707006
 H        -4.431777         0.084559         1.320043
 H        -1.478818        -1.852440         1.972441
 H        -2.556236        -1.917314         0.673249
 H        -0.027313        -2.237617         0.007973
 H        -1.201905        -1.310441        -1.009993
 H        -0.575845         2.248086        -0.511185
 H        -1.525664         0.959293        -1.149048
 H        -2.553286         1.953081         0.977422
