19
Iteration:  2187charge 0 multiplicity 1
 C        -3.963679        -0.192522         1.893725
 C        -2.528401        -0.103745         1.417905
 C        -1.702541        -1.434455         1.272272
 C        -0.393880        -1.311148         0.556770
 C         0.065541         0.102116        -0.032111
 O         1.194374         0.177422        -0.437397
 C        -0.708611         1.367053         0.277929
 C        -1.912042         1.225552         1.136203
 O        -1.917824         0.722468         2.510862
 H        -4.458970        -1.164724         2.082494
 H        -4.045004         0.544806         2.818531
 H        -4.785793         0.130478         1.190948
 H        -1.491392        -1.705013         2.280823
 H        -2.319725        -2.142785         0.721597
 H         0.325300        -1.329734         1.369371
 H         0.047013        -2.133185        -0.005346
 H        -0.016362         2.098377         0.493290
 H        -1.113080         1.664539        -0.677127
 H        -2.694269         2.083160         1.054024
