19
Iteration:  3691charge 0 multiplicity 1
 C        -3.732929        -0.440234         2.312462
 C        -2.487030        -0.144601         1.607339
 C        -1.798214        -1.422744         0.943490
 C        -0.446992        -1.250092         0.071115
 C         0.063040         0.139548         0.183024
 O         1.268734         0.464110         0.204277
 C        -1.046002         1.232791         0.011005
 C        -2.129098         1.234320         1.032746
 O        -1.611669         0.771541         2.289600
 H        -3.596425        -0.685031         3.352567
 H        -4.369367         0.502082         2.388397
 H        -4.343615        -1.159057         1.803214
 H        -1.409333        -2.136991         1.712555
 H        -2.488323        -1.945572         0.345554
 H         0.320161        -1.923898         0.486025
 H        -0.639085        -1.428044        -1.059736
 H        -0.552508         2.185272        -0.011941
 H        -1.375105         1.009236        -0.995676
 H        -2.971834         1.919117         0.942096
