19
Iteration:  2575charge 0 multiplicity 1
 C        -3.776594        -0.570851         1.483356
 C        -2.392202        -0.123360         1.797520
 C        -1.372423        -1.234830         1.743799
 C        -0.841698        -1.287632         0.234233
 C         0.073790         0.041989        -0.088059
 O         1.053591         0.226790        -0.712694
 C        -0.448010         1.222514         0.746080
 C        -1.879697         1.076954         1.084184
 O        -2.220836         1.170452         2.488246
 H        -4.082769        -1.437341         2.054305
 H        -4.618752         0.244314         1.658255
 H        -3.859729        -0.746684         0.434062
 H        -0.569342        -1.084539         2.470954
 H        -1.782104        -2.199432         1.981181
 H        -0.355736        -2.229830         0.055057
 H        -1.700640        -1.260914        -0.457639
 H         0.319856         1.385439         1.652330
 H        -0.352710         2.159147         0.071324
 H        -2.544696         1.613603         0.436762
