19
Iteration:   878charge 0 multiplicity 1
 C        -3.939111        -0.231087         1.865164
 C        -2.467838        -0.097194         1.562192
 C        -1.812375        -1.226899         0.868123
 C        -0.365663        -1.216797         0.787684
 C         0.064347         0.067963         0.127989
 O         1.093202         0.214829        -0.503715
 C        -0.850385         1.251516         0.184420
 C        -1.906236         1.173153         1.237369
 O        -1.663746         0.637017         2.612328
 H        -4.184868        -1.084217         2.549568
 H        -4.307178         0.720445         2.460589
 H        -4.403032        -0.404596         0.878692
 H        -2.144071        -2.156854         1.246256
 H        -2.203566        -1.158220        -0.153266
 H         0.035544        -1.368944         1.785277
 H         0.087655        -2.010457         0.045458
 H        -0.250784         2.190620         0.202215
 H        -1.506976         1.176771        -0.795732
 H        -2.509619         2.096014         1.237918
