19
Iteration:  3165charge 0 multiplicity 1
 C        -3.880523        -0.351070         1.305191
 C        -2.420921        -0.090248         1.420639
 C        -1.534910        -1.339649         1.215175
 C        -0.003581        -0.974984         1.139350
 C         0.027518         0.122235         0.155876
 O         0.356143        -0.080684        -1.016718
 C        -0.503258         1.472429         0.614322
 C        -1.848112         1.325741         1.315040
 O        -1.955810         0.577075         2.608675
 H        -4.211610        -1.161993         2.074062
 H        -4.495959         0.559370         1.367184
 H        -4.250299        -0.720186         0.323822
 H        -1.608147        -2.086722         2.047795
 H        -1.815755        -1.860399         0.347787
 H         0.539054        -0.830029         2.127960
 H         0.539655        -1.762357         0.630183
 H         0.246015         1.937949         1.329531
 H        -0.608222         2.214806        -0.156987
 H        -2.654223         2.064060         1.219584
