19
Iteration:   376
 C        -4.029684        -0.178210         1.136956
 C        -2.418888        -0.097088         1.430589
 C        -1.444528        -1.354213         1.595860
 C         0.046600        -1.314479         0.992069
 C         0.043009        -0.021053         0.084661
 O         0.161477         0.091876        -1.113061
 C        -0.242810         1.193154         0.944509
 C        -1.734818         1.224434         1.181075
 O        -2.125974         0.998173         2.493457
 H        -4.587084        -0.673449         1.956147
 H        -4.265270         0.985693         0.892344
 H        -4.151375        -0.819241         0.306259
 H        -1.401274        -1.628015         2.627093
 H        -1.968196        -2.154800         1.131038
 H         0.726444        -1.171941         1.861351
 H         0.295067        -2.324056         0.557216
 H         0.424404         1.007182         1.864090
 H         0.089536         2.115640         0.412645
 H        -2.250567         2.077287         0.676201
