19
Iteration:  2182
 C        -3.994725        -0.214918         1.921849
 C        -2.507776        -0.108019         1.431944
 C        -1.747248        -1.388446         1.241254
 C        -0.425215        -1.281397         0.568543
 C         0.057809         0.122983        -0.011197
 O         1.210770         0.179474        -0.395106
 C        -0.695972         1.306863         0.216731
 C        -1.925861         1.249296         1.124421
 O        -1.874663         0.706737         2.496308
 H        -4.343097        -1.251497         2.101282
 H        -4.017398         0.388767         2.771061
 H        -4.785381        -0.014370         1.207685
 H        -1.522263        -1.648002         2.332087
 H        -2.303803        -2.242432         0.773678
 H         0.377590        -1.323597         1.358530
 H        -0.115923        -2.083705        -0.139850
 H         0.109495         2.212284         0.489946
 H        -1.114135         1.733623        -0.746699
 H        -2.646272         2.092642         1.087958
