19
Iteration:  4649charge 0 multiplicity 1
 C        -3.874399        -0.579395         1.697058
 C        -2.405277        -0.165676         1.660119
 C        -1.367890        -1.255762         1.652481
 C        -0.485740        -1.141811         0.337474
 C         0.165258         0.100742         0.001715
 O         1.069563         0.014651        -0.801751
 C        -0.683142         1.347464         0.630348
 C        -2.058447         1.089667         1.064430
 O        -2.146249         1.150742         2.523048
 H        -4.164742        -0.693570         0.591401
 H        -4.264030        -1.467870         2.118641
 H        -4.431366         0.240875         2.143324
 H        -0.807820        -1.422648         2.647060
 H        -1.937375        -2.148593         1.642861
 H         0.232500        -1.920298         0.245062
 H        -1.192995        -1.187827        -0.576438
 H        -0.082043         1.536527         1.461910
 H        -0.652676         2.225848        -0.161261
 H        -2.816038         1.738883         0.598670
