19
Iteration:  4039charge 0 multiplicity 1
 C        -3.896584        -0.493825         1.470565
 C        -2.436775        -0.143377         1.496051
 C        -1.522978        -1.358045         1.129639
 C        -0.039661        -1.030126         1.067714
 C         0.108799         0.178921         0.140199
 O         0.276455         0.174969        -1.115712
 C        -0.434046         1.426796         0.727242
 C        -1.832019         1.232164         1.241862
 O        -1.949146         0.623609         2.598376
 H        -4.131349        -1.026943         2.406970
 H        -4.683488         0.331644         1.342443
 H        -4.179244        -1.031789         0.587982
 H        -1.647743        -1.964302         1.962357
 H        -2.022329        -1.877515         0.261706
 H         0.455250        -0.860997         1.998003
 H         0.325221        -1.975673         0.582701
 H         0.162856         1.820136         1.556579
 H        -0.297901         2.178692        -0.116799
 H        -2.458625         2.158321         1.180705
