19
Iteration:  4722
 C        -3.778311        -0.553149         1.372273
 C        -2.362508        -0.082198         1.768891
 C        -1.224315        -1.228816         1.788050
 C        -0.574133        -1.276076         0.488553
 C         0.031622         0.160737        -0.100308
 O         0.903000         0.024601        -0.920660
 C        -0.557724         1.333773         0.629331
 C        -2.019950         1.168454         1.115066
 O        -2.205227         1.061547         2.620962
 H        -3.927405        -0.437500         0.287980
 H        -4.116656        -1.616761         1.430499
 H        -4.511863         0.080683         1.843747
 H        -0.553346        -1.226310         2.608701
 H        -1.792044        -2.114461         2.189595
 H         0.323743        -1.915027         0.492366
 H        -1.272468        -1.605452        -0.300160
 H        -0.081187         1.498024         1.654219
 H        -0.502534         2.266340         0.098641
 H        -2.775712         1.710422         0.521660
