19
Iteration:  2753
 C        -3.857410        -0.367801         2.037768
 C        -2.491110        -0.144721         1.620760
 C        -1.692918        -1.404078         1.228917
 C        -0.514897        -1.283060         0.275331
 C         0.190022         0.106384         0.132578
 O         1.367320         0.195487        -0.217561
 C        -0.835006         1.338020         0.099889
 C        -2.030806         1.148604         1.034460
 O        -1.955928         0.958584         2.479124
 H        -4.026146        -1.042935         2.978964
 H        -4.235483         0.650672         2.405955
 H        -4.652767        -0.729192         1.340725
 H        -1.385859        -2.024887         2.071229
 H        -2.539360        -1.904358         0.644455
 H         0.370818        -2.050815         0.489382
 H        -0.852393        -1.536083        -0.744544
 H        -0.210139         2.303680         0.399673
 H        -1.292968         1.507914        -0.842395
 H        -2.813689         1.929483         0.707488
