19
Iteration:  1174charge 0 multiplicity 1
 C        -4.053587        -0.340248         1.744880
 C        -2.581650        -0.073248         1.560453
 C        -1.799198        -1.212526         1.075088
 C        -0.282565        -1.149377         0.841439
 C         0.104821         0.101431         0.038109
 O         1.076226         0.152183        -0.743178
 C        -0.662514         1.300346         0.365500
 C        -1.896619         1.207572         1.225934
 O        -1.777433         0.636206         2.611785
 H        -4.383534        -0.951531         2.620813
 H        -4.527796         0.598748         1.865224
 H        -4.395946        -0.854617         0.816274
 H        -1.951615        -2.167067         1.722223
 H        -2.216141        -1.583888         0.114827
 H         0.216586        -1.187551         1.855284
 H         0.048576        -2.021108         0.342182
 H         0.059001         1.996361         0.637476
 H        -0.984629         1.706707        -0.691881
 H        -2.439829         2.121750         1.381041
