19
Iteration:   978charge 0 multiplicity 1
 C        -3.839971        -0.332629         1.246712
 C        -2.401365        -0.119974         1.539159
 C        -1.551942        -1.291651         1.233907
 C        -0.067959        -1.111860         0.970270
 C         0.026187         0.081062         0.162016
 O         0.213758         0.016370        -1.052548
 C        -0.330191         1.342413         0.811140
 C        -1.745534         1.218758         1.284635
 O        -2.029711         0.800994         2.654428
 H        -4.284350        -0.979156         2.058094
 H        -4.329878         0.579084         1.130307
 H        -4.033200        -0.873613         0.261358
 H        -1.835630        -2.128704         1.780538
 H        -1.811663        -1.572808         0.230270
 H         0.669918        -1.066625         1.797186
 H         0.110885        -1.924999         0.328188
 H         0.244532         1.549079         1.689190
 H        -0.225402         2.170746        -0.075696
 H        -2.406424         2.014828         0.973924
