19
Iteration:   248
 C        -4.027639        -0.092854         1.705023
 C        -2.524384        -0.004604         1.517143
 C        -1.855213        -1.273336         1.054372
 C        -0.363582        -1.100926         1.045202
 C         0.101349         0.031166         0.137417
 O         1.067871        -0.082353        -0.705395
 C        -0.652226         1.300325         0.262311
 C        -1.938560         1.247832         1.191953
 O        -1.694100         0.571752         2.525661
 H        -4.269134        -0.842490         2.385297
 H        -4.351317         0.875525         2.233694
 H        -4.557946        -0.127251         0.774454
 H        -2.174895        -2.138933         1.724178
 H        -2.173106        -1.477164        -0.061189
 H        -0.017121        -1.006840         2.046081
 H         0.271317        -1.935944         0.575135
 H         0.057104         1.981684         0.653446
 H        -0.925474         1.624434        -0.794272
 H        -2.565046         2.189901         1.154963
