19
Iteration:  2971charge 0 multiplicity 1
 C        -3.897634        -0.319323         1.906438
 C        -2.418053        -0.052899         1.677336
 C        -1.756564        -1.328372         1.165719
 C        -0.507733        -1.254369         0.293899
 C         0.010433         0.122759         0.126249
 O         1.228166         0.309696         0.038037
 C        -0.998989         1.221373        -0.015168
 C        -1.990688         1.206586         1.109975
 O        -1.530822         0.715611         2.424031
 H        -4.195423        -1.191815         2.598164
 H        -4.480009         0.478462         2.238464
 H        -4.436574        -0.572877         0.967648
 H        -1.456184        -1.810729         2.144058
 H        -2.585775        -1.909602         0.636741
 H         0.288436        -2.022898         0.571138
 H        -0.642797        -1.521429        -0.786597
 H        -0.490540         2.231848        -0.174974
 H        -1.554336         1.016033        -1.053380
 H        -2.726031         2.038501         1.096190
