19
Iteration:  3282
 C        -3.802130        -0.508181         1.222346
 C        -2.396766        -0.145274         1.647735
 C        -1.418657        -1.280930         1.782661
 C        -0.352405        -1.229494         0.645132
 C         0.068871         0.120987         0.009556
 O         0.592237         0.210416        -1.104949
 C        -0.353311         1.296853         0.756170
 C        -1.830228         1.167056         1.216668
 O        -2.290472         0.928351         2.597986
 H        -3.929351        -1.544187         1.403242
 H        -4.583951         0.173379         1.793161
 H        -3.895587        -0.278509         0.160559
 H        -1.012154        -1.151303         2.807886
 H        -2.001453        -2.285995         1.832465
 H         0.678216        -1.484415         0.922834
 H        -0.562705        -1.958266        -0.090802
 H         0.194248         1.349037         1.748527
 H        -0.185910         2.240242         0.271246
 H        -2.399546         1.956695         0.665520
