19
Iteration:  4826
 C        -3.841646        -0.500757         1.380616
 C        -2.481517        -0.167093         1.670869
 C        -1.354163        -1.281591         1.817386
 C        -0.391952        -1.323610         0.630163
 C         0.150599         0.124414         0.002714
 O         0.575276         0.249031        -1.121295
 C        -0.330343         1.328145         0.803258
 C        -1.833805         1.063493         1.056189
 O        -2.222445         1.035724         2.550609
 H        -3.983536        -1.561873         1.455902
 H        -4.547002         0.063992         2.058093
 H        -4.185092        -0.253504         0.368816
 H        -0.793994        -0.838711         2.720937
 H        -1.793817        -2.268266         1.914044
 H         0.256346        -2.201395         0.738452
 H        -0.861520        -1.626658        -0.328948
 H         0.276268         1.370195         1.742242
 H        -0.483840         2.328463         0.336696
 H        -2.414001         1.808381         0.555584
