19
Iteration:  4461
 C        -3.908563        -0.521323         2.019740
 C        -2.457171        -0.138489         1.671856
 C        -1.617452        -1.385259         1.278361
 C        -0.648395        -1.193816         0.100097
 C         0.127278         0.059780         0.100923
 O         1.303662         0.301216        -0.174189
 C        -0.886780         1.212980         0.268018
 C        -2.128335         1.217370         1.046306
 O        -1.678944         0.995783         2.434382
 H        -3.690857        -1.363973         2.659421
 H        -4.534555         0.333972         2.462601
 H        -4.415144        -0.777238         1.078022
 H        -1.076277        -1.685816         2.170302
 H        -2.223568        -2.290335         1.119803
 H         0.010724        -2.045002        -0.258420
 H        -1.225563        -1.016473        -0.830746
 H        -0.258694         2.139168         0.490388
 H        -1.207110         1.385522        -0.849554
 H        -2.979768         1.848243         0.768349
