19
Iteration:    81
 C        -3.625090        -0.208239         2.266136
 C        -2.358992         0.015132         1.466941
 C        -1.774880        -1.352027         1.093825
 C        -0.830952        -1.384897        -0.070554
 C        -0.081324        -0.061846         0.227488
 O         0.949078         0.085837         0.769282
 C        -0.859443         1.259647        -0.209922
 C        -1.905347         1.282964         0.866239
 O        -1.433967         0.945232         2.137220
 H        -3.753407        -1.288803         2.497818
 H        -3.641961         0.391323         3.137770
 H        -4.352264         0.063370         1.558784
 H        -1.190244        -1.621228         2.061420
 H        -2.579452        -2.165734         0.971514
 H        -0.053390        -2.284746        -0.064957
 H        -1.321385        -1.371160        -1.034678
 H        -0.115710         2.124615        -0.116973
 H        -1.328775         1.178496        -1.205439
 H        -2.518050         2.154371         0.816663
