19
Iteration:  3016
 C        -3.985197        -0.264829         1.933233
 C        -2.491531        -0.154936         1.611067
 C        -1.732836        -1.428495         1.272975
 C        -0.403281        -1.218161         0.481052
 C         0.123277         0.116753         0.067908
 O         1.226163         0.267312        -0.360734
 C        -0.778843         1.386950         0.204856
 C        -1.981065         1.148795         1.041401
 O        -1.863665         0.726888         2.471628
 H        -4.238135        -1.296783         2.342768
 H        -4.262029         0.487632         2.636954
 H        -4.587417        -0.104488         0.990885
 H        -1.356919        -1.945957         2.157753
 H        -2.362063        -2.074132         0.572282
 H         0.460954        -1.786632         0.840364
 H        -0.541266        -1.920937        -0.374720
 H        -0.051140         2.289661         0.405318
 H        -1.022382         1.693466        -0.896228
 H        -2.694757         2.002753         0.989058
