19
Iteration:  4437charge 0 multiplicity 1
 C        -3.837120        -0.437672         2.098641
 C        -2.407673        -0.216572         1.678916
 C        -1.644631        -1.392347         1.260008
 C        -0.628508        -1.206988         0.140924
 C         0.014690         0.144776         0.007121
 O         1.229456         0.268566        -0.040693
 C        -0.884059         1.454209         0.102091
 C        -2.016421         1.181806         1.020244
 O        -1.734222         0.781898         2.389681
 H        -3.849981        -0.761502         3.089086
 H        -4.238245         0.586509         1.952578
 H        -4.402220        -1.063631         1.389496
 H        -1.144081        -1.783393         2.120414
 H        -2.336764        -2.275592         1.016948
 H         0.278452        -1.922915         0.298365
 H        -0.977799        -1.537102        -0.862899
 H        -0.198309         2.335649         0.469280
 H        -1.204119         1.715671        -0.952310
 H        -2.851032         1.859223         0.993124
