19
Iteration:  1951charge 0 multiplicity 1
 C        -3.841591        -0.080942         2.093765
 C        -2.466618        -0.102113         1.519117
 C        -1.778286        -1.423566         1.262510
 C        -0.551588        -1.355022         0.220814
 C         0.032154         0.096884         0.030987
 O         1.206296         0.313956         0.211533
 C        -0.889209         1.279605        -0.058520
 C        -1.971572         1.150529         0.946422
 O        -1.668133         0.685492         2.348101
 H        -3.816533        -0.871969         2.878301
 H        -3.892691         0.856418         2.581521
 H        -4.690088        -0.274997         1.355726
 H        -1.331592        -1.813579         2.200835
 H        -2.443365        -2.198518         0.844030
 H         0.281244        -2.012207         0.395033
 H        -0.896265        -1.703744        -0.737287
 H        -0.197376         2.158878         0.093843
 H        -1.373720         1.316299        -0.987928
 H        -2.494558         2.051372         1.035985
