19
Iteration:  3721charge 0 multiplicity 1
 C        -3.794369        -0.396163         2.170402
 C        -2.470136        -0.225049         1.600130
 C        -1.792832        -1.458030         1.049831
 C        -0.457493        -1.182156         0.321348
 C         0.089369         0.239858         0.145258
 O         1.266875         0.433947        -0.051744
 C        -0.961260         1.305659         0.053746
 C        -2.059680         1.121208         1.051320
 O        -1.673967         0.742496         2.380562
 H        -3.849596        -1.263374         2.890126
 H        -3.958153         0.598819         2.617078
 H        -4.618303        -0.604761         1.360258
 H        -1.548900        -2.326259         1.711971
 H        -2.667312        -1.781448         0.319365
 H         0.388577        -1.763281         0.645260
 H        -0.643843        -1.433862        -0.719065
 H        -0.612698         2.316849         0.109412
 H        -1.449220         1.244899        -1.037942
 H        -3.006490         1.618037         0.935797
