19
Iteration:  4125
 C        -3.934613        -0.436082         1.773269
 C        -2.466844        -0.147743         1.555961
 C        -1.729410        -1.365546         0.959480
 C        -0.209332        -1.040654         0.874512
 C         0.117863         0.173879        -0.005651
 O         0.904014         0.149388        -0.912064
 C        -0.730055         1.442168         0.431179
 C        -1.923122         1.242497         1.369185
 O        -1.859799         0.583683         2.650099
 H        -4.010538        -1.110053         2.599592
 H        -4.574954         0.484343         1.921992
 H        -4.269052        -1.013291         0.914820
 H        -1.801907        -2.210984         1.703035
 H        -2.208147        -1.705406         0.015996
 H         0.020661        -0.634542         1.877490
 H         0.531010        -1.871523         0.761309
 H        -0.059295         2.204384         0.863709
 H        -1.046651         1.807305        -0.633917
 H        -2.640206         2.173717         1.442632
