19
Iteration:  3164charge 0 multiplicity 1
 C        -3.890575        -0.349302         1.313436
 C        -2.419288        -0.087417         1.416247
 C        -1.527265        -1.346494         1.210528
 C        -0.002746        -0.972667         1.138644
 C         0.023962         0.110955         0.163546
 O         0.357429        -0.081262        -1.013858
 C        -0.509668         1.478713         0.608110
 C        -1.849109         1.330052         1.320204
 O        -1.957325         0.571655         2.609175
 H        -4.185954        -1.127719         2.067102
 H        -4.473735         0.605615         1.341143
 H        -4.219845        -0.713239         0.334525
 H        -1.586559        -2.095280         2.022463
 H        -1.777043        -1.848313         0.316653
 H         0.512553        -0.844638         2.129604
 H         0.539309        -1.749304         0.642966
 H         0.283140         1.973300         1.302672
 H        -0.622093         2.213183        -0.173142
 H        -2.655704         2.043412         1.212567
