19
Iteration:  3991
 C        -3.761220        -0.408815         1.327169
 C        -2.334939        -0.229119         1.592402
 C        -1.473596        -1.432366         1.387350
 C        -0.059681        -1.076274         0.874637
 C         0.036812         0.195289         0.029085
 O         0.266983         0.146424        -1.146172
 C        -0.366904         1.458400         0.768304
 C        -1.873407         1.129475         1.290305
 O        -2.175484         0.774371         2.656032
 H        -4.051393        -1.420041         1.515036
 H        -4.370872         0.225222         1.883787
 H        -3.905988        -0.102344         0.277761
 H        -1.538530        -2.051356         2.320584
 H        -2.052246        -1.934957         0.679850
 H         0.577527        -0.879900         1.790893
 H         0.510062        -1.684151         0.203846
 H         0.261532         1.525631         1.692230
 H        -0.166835         2.394457         0.203630
 H        -2.622979         1.835279         0.811252
