19
Iteration:  3321
 C        -3.710931        -0.562116         1.203894
 C        -2.327543        -0.093022         1.614293
 C        -1.265344        -1.159081         1.809008
 C        -0.539901        -1.279219         0.436571
 C        -0.034937         0.064600         0.007612
 O         0.699872         0.182249        -0.972896
 C        -0.456499         1.270046         0.838299
 C        -1.880392         1.208423         1.247210
 O        -2.285739         0.953076         2.610094
 H        -4.189906        -1.301705         1.913763
 H        -4.390049         0.220400         0.983142
 H        -3.632072        -1.081714         0.220238
 H        -0.498198        -0.617737         2.375413
 H        -1.577006        -2.097356         2.191203
 H         0.266045        -2.036887         0.585758
 H        -1.219798        -1.610806        -0.446610
 H         0.100770         1.269729         1.820473
 H        -0.053449         2.116411         0.233287
 H        -2.728089         1.870018         0.819841
