19
Iteration:  4664charge 0 multiplicity 1
 C        -3.949458        -0.597631         1.624544
 C        -2.480828        -0.154071         1.684768
 C        -1.342062        -1.213888         1.699807
 C        -0.552392        -1.189137         0.450379
 C         0.128570         0.116052        -0.057304
 O         1.055444         0.062696        -0.816676
 C        -0.500789         1.364606         0.504352
 C        -2.017438         1.201908         1.120778
 O        -2.165396         0.995930         2.505499
 H        -4.405924        -0.554531         0.635813
 H        -3.890891        -1.616371         2.141183
 H        -4.602909         0.010794         2.335955
 H        -0.708464        -0.888449         2.499149
 H        -1.721645        -2.263400         1.741482
 H         0.216504        -2.048024         0.430579
 H        -1.326537        -1.330919        -0.316987
 H         0.056744         1.685576         1.453835
 H        -0.368043         2.234374        -0.087590
 H        -2.780631         1.786857         0.587532
