19
Iteration:  2593
 C        -3.912026        -0.553983         1.482877
 C        -2.350080        -0.158607         1.658836
 C        -1.315005        -1.253003         1.749435
 C        -0.777690        -1.164551         0.321829
 C         0.089571         0.057240         0.044632
 O         1.009522         0.091138        -0.702650
 C        -0.507261         1.343994         0.686782
 C        -1.953954         1.161282         1.029660
 O        -2.099661         1.030374         2.470268
 H        -3.940359        -1.538232         1.954371
 H        -4.426475         0.123505         2.064921
 H        -4.120418        -0.591126         0.373013
 H        -0.533040        -0.938570         2.450264
 H        -1.753555        -2.179734         2.112781
 H        -0.273575        -1.990813        -0.151789
 H        -1.702046        -1.097626        -0.324076
 H        -0.108894         1.383188         1.617385
 H        -0.126049         2.235568         0.190176
 H        -2.718317         1.749108         0.517959
