19
Iteration:  3209charge 0 multiplicity 1
 C        -3.898775        -0.451847         1.317875
 C        -2.389265        -0.141838         1.570668
 C        -1.500210        -1.433827         1.477031
 C        -0.032833        -1.156787         0.952122
 C         0.000805         0.116489         0.047334
 O         0.361527         0.155412        -1.102028
 C        -0.322565         1.342540         0.803207
 C        -1.791058         1.182100         1.161721
 O        -2.209528         0.950409         2.537720
 H        -3.879814        -1.569271         1.481593
 H        -4.385059         0.222036         1.957463
 H        -4.153448        -0.108939         0.305638
 H        -1.694462        -2.062109         2.390877
 H        -1.916123        -1.912857         0.659958
 H         0.570859        -1.061319         1.900181
 H         0.456487        -1.995055         0.433996
 H         0.371600         1.358701         1.693276
 H        -0.042332         2.244766         0.245119
 H        -2.444665         1.996930         0.764686
