19
Iteration:  1487
 C        -3.864756        -0.409536         1.481850
 C        -2.418564        -0.058626         1.654946
 C        -1.462280        -1.330198         1.644889
 C        -0.642235        -1.308503         0.345539
 C         0.084621         0.060988         0.005996
 O         1.046808        -0.093579        -0.705159
 C        -0.494190         1.405460         0.606765
 C        -1.927716         1.154429         1.129165
 O        -2.139232         1.151084         2.563754
 H        -4.225948        -0.861563         2.477087
 H        -4.365747         0.447781         1.400472
 H        -4.043755        -1.180051         0.666153
 H        -0.931334        -1.281066         2.562739
 H        -2.144247        -2.161482         1.631994
 H         0.235985        -2.069751         0.416388
 H        -1.263227        -1.483219        -0.552508
 H         0.293098         1.792948         1.424979
 H        -0.559221         2.212225        -0.124210
 H        -2.677864         1.782616         0.707824
