19
Iteration:  3388
 C        -3.845251        -0.603555         1.599746
 C        -2.419853        -0.178056         1.632566
 C        -1.268060        -1.242743         1.667478
 C        -0.610320        -1.219298         0.268672
 C         0.044794         0.120200        -0.075161
 O         0.962372         0.226118        -0.837458
 C        -0.464742         1.272935         0.870120
 C        -1.960481         1.217953         1.087378
 O        -2.263475         0.986486         2.505438
 H        -4.277685        -0.402246         2.568361
 H        -4.512753        -0.083128         0.829912
 H        -3.982754        -1.669266         1.463167
 H        -0.441009        -1.143000         2.395598
 H        -1.812778        -2.172805         1.810463
 H         0.272296        -1.883534         0.284575
 H        -1.223884        -1.432716        -0.699655
 H         0.069283         1.191352         1.876293
 H        -0.214622         2.226007         0.421469
 H        -2.643528         1.852466         0.521897
