19
Iteration:  1346
 C        -3.668916        -0.161027         2.328856
 C        -2.448007        -0.124229         1.523531
 C        -1.851482        -1.405044         1.033536
 C        -0.661412        -1.211875        -0.002930
 C         0.070451         0.186950         0.078459
 O         1.202689         0.133467         0.608704
 C        -0.940180         1.258250        -0.159978
 C        -2.073996         1.149694         0.898278
 O        -1.547252         0.759608         2.228750
 H        -3.402404        -0.497614         3.403833
 H        -4.041992         0.774691         2.416305
 H        -4.373334        -0.952802         1.886212
 H        -1.460079        -1.919323         1.880254
 H        -2.570625        -2.000026         0.517976
 H         0.166882        -1.970085         0.294258
 H        -1.107710        -1.417337        -0.945343
 H        -0.514762         2.342301        -0.072089
 H        -1.461381         1.305049        -1.123821
 H        -2.678052         2.014170         0.750183
