19
Iteration:  4120
 C        -3.977576        -0.427592         1.765083
 C        -2.517471        -0.109196         1.532200
 C        -1.666914        -1.383263         0.972375
 C        -0.200055        -1.056046         0.925154
 C         0.141293         0.209062         0.036049
 O         0.870438         0.166790        -0.966666
 C        -0.728660         1.437982         0.410519
 C        -1.876009         1.252411         1.373406
 O        -1.871326         0.543136         2.655659
 H        -4.055848        -1.101968         2.676588
 H        -4.583869         0.442063         1.892127
 H        -4.207293        -1.145543         0.919287
 H        -1.807000        -2.248158         1.695100
 H        -2.229278        -1.605540         0.060231
 H        -0.040014        -0.622325         1.955810
 H         0.401890        -1.952882         0.840124
 H         0.116664         2.099963         0.709742
 H        -1.079530         1.852402        -0.492671
 H        -2.456104         2.119899         1.311326
