19
Iteration:  1099charge 0 multiplicity 1
 C        -4.035385        -0.417216         1.283231
 C        -2.428154        -0.059124         1.435147
 C        -1.582513        -1.314717         1.179073
 C        -0.053532        -1.077218         1.155999
 C         0.137784         0.068665         0.095574
 O         0.161578         0.014169        -1.142957
 C        -0.235746         1.385580         0.861176
 C        -1.711905         1.322583         1.307426
 O        -1.964243         0.696067         2.554943
 H        -4.422439        -1.265476         1.842502
 H        -4.537068         0.486103         1.523883
 H        -4.270957        -0.703834         0.236615
 H        -1.742040        -1.844493         2.076751
 H        -1.817838        -2.052721         0.468987
 H         0.367529        -0.723438         2.089694
 H         0.493825        -1.960844         0.933078
 H         0.310190         1.549905         1.799358
 H        -0.084732         2.402460         0.226908
 H        -2.424385         2.121744         1.158247
