19
Iteration:  4769charge 0 multiplicity 1
 C        -3.810494        -0.624751         1.409717
 C        -2.392622        -0.062649         1.589945
 C        -1.256149        -1.107943         1.754502
 C        -0.521134        -1.377798         0.435168
 C         0.121196        -0.066755         0.028688
 O         0.698828         0.170988        -1.010045
 C        -0.412171         1.333550         0.840393
 C        -1.965154         1.265828         1.132503
 O        -2.241317         1.040461         2.550588
 H        -3.922598        -1.579569         0.831308
 H        -4.104063        -0.965233         2.347139
 H        -4.491044         0.148788         1.009106
 H        -0.549013        -0.877361         2.630847
 H        -1.566704        -2.063167         2.154894
 H         0.234562        -2.073071         0.674505
 H        -1.128827        -1.680769        -0.454505
 H        -0.035130         1.456640         1.840812
 H        -0.119624         2.278081         0.177401
 H        -2.677876         1.951884         0.613775
