19
Iteration:   123charge 0 multiplicity 1
 C        -3.813258         0.058524         2.183872
 C        -2.380192        -0.089766         1.613131
 C        -1.858027        -1.458584         1.041179
 C        -0.707563        -1.318652        -0.026980
 C         0.021775         0.076629         0.163945
 O         1.109253         0.155931         0.631367
 C        -0.971489         1.164466        -0.234456
 C        -1.858578         1.185545         0.962455
 O        -1.409597         0.800166         2.246873
 H        -4.136000        -0.639290         3.046435
 H        -4.004712         1.036233         2.422044
 H        -4.547338        -0.325226         1.470246
 H        -1.282709        -1.935906         1.829695
 H        -2.697600        -2.104173         0.844725
 H         0.108380        -2.144189         0.122609
 H        -1.057184        -1.428018        -0.991286
 H        -0.467129         2.185644        -0.298276
 H        -1.596628         0.923189        -1.045683
 H        -2.538451         1.998794         0.919417
