19
Iteration:  2055charge 0 multiplicity 1
 C        -3.691187        -0.161024         2.335695
 C        -2.357001        -0.080834         1.591020
 C        -2.078704        -1.302290         0.721503
 C        -0.532251        -1.369416         0.465710
 C         0.007176         0.127623         0.249544
 O         1.195023         0.377102         0.410114
 C        -1.116123         1.130581        -0.227291
 C        -2.011062         1.188574         0.902317
 O        -1.335573         0.652434         2.185432
 H        -3.573178        -0.536492         3.402261
 H        -4.229957         0.917574         2.324709
 H        -4.322108        -0.805998         1.691856
 H        -2.409905        -2.257095         1.166747
 H        -2.610785        -1.269068        -0.256009
 H        -0.054318        -1.712960         1.400612
 H        -0.262316        -1.905939        -0.478149
 H        -0.693632         2.125248        -0.346739
 H        -1.439456         0.733017        -1.289371
 H        -2.636124         2.125307         1.195231
