19
Iteration:  4556
 C        -3.866905        -0.559709         1.745676
 C        -2.354319        -0.149877         1.662892
 C        -1.391733        -1.327357         1.582723
 C        -0.743913        -1.195000         0.192777
 C         0.076376         0.088849        -0.042946
 O         1.252271         0.197807        -0.476955
 C        -0.690833         1.312188         0.315260
 C        -1.958417         1.193911         1.182284
 O        -2.079903         1.036376         2.571034
 H        -3.865532        -1.608404         1.676675
 H        -4.457439        -0.338725         2.724885
 H        -4.528920        -0.050488         0.992551
 H        -0.809356        -1.628151         2.435708
 H        -2.017960        -2.342419         1.513639
 H        -0.163262        -2.171017        -0.085511
 H        -1.585539        -1.268103        -0.537862
 H        -0.082440         2.209027         0.741050
 H        -1.108467         1.734515        -0.522750
 H        -2.828180         1.657146         0.681087
