19
Iteration:  3730
 C        -3.888718        -0.388692         2.174390
 C        -2.436199        -0.213163         1.626430
 C        -1.758250        -1.442379         1.085182
 C        -0.481355        -1.188513         0.330583
 C         0.073048         0.255150         0.064263
 O         1.287750         0.453979        -0.091798
 C        -0.920329         1.334775         0.037071
 C        -2.101176         1.087260         1.080341
 O        -1.661302         0.688855         2.359848
 H        -4.019402        -1.355468         2.757118
 H        -4.316534         0.381683         2.779176
 H        -4.499131        -0.454354         1.195558
 H        -1.632062        -2.177483         1.887933
 H        -2.606290        -1.954913         0.419936
 H         0.321254        -1.633757         0.928695
 H        -0.418041        -1.765319        -0.565711
 H        -0.384477         2.274473         0.283003
 H        -1.332866         1.406780        -1.032805
 H        -2.817443         1.951389         1.069758
