19
Iteration:  3405
 C        -3.948194        -0.572820         1.662156
 C        -2.456552        -0.210124         1.566318
 C        -1.416226        -1.243397         1.616251
 C        -0.530544        -1.307144         0.272691
 C         0.057393         0.154470        -0.066187
 O         1.005039         0.342906        -0.755046
 C        -0.458129         1.323976         0.651649
 C        -1.901383         1.101459         1.140091
 O        -2.194739         0.962748         2.543678
 H        -4.362155        -0.361157         2.701329
 H        -4.496457         0.098571         1.051735
 H        -3.927738        -1.652690         1.363708
 H        -0.733057        -0.976479         2.479355
 H        -1.590151        -2.247529         2.037221
 H         0.139704        -2.180744         0.286045
 H        -1.316240        -1.664632        -0.316647
 H        -0.000033         1.274749         1.651877
 H        -0.134616         2.294502         0.158389
 H        -2.569242         1.863560         0.620429
