19
Iteration:  3406charge 0 multiplicity 1
 C        -3.950010        -0.566904         1.664050
 C        -2.468667        -0.219744         1.562023
 C        -1.418114        -1.240113         1.621754
 C        -0.525893        -1.309926         0.272468
 C         0.059275         0.151030        -0.068254
 O         1.007535         0.347632        -0.751219
 C        -0.459986         1.323101         0.641550
 C        -1.899919         1.098640         1.134770
 O        -2.188453         0.961649         2.552307
 H        -4.367557        -0.381690         2.702231
 H        -4.474480         0.082247         1.068696
 H        -3.941405        -1.635209         1.353818
 H        -0.723560        -0.979846         2.467553
 H        -1.622166        -2.232914         2.018896
 H         0.134182        -2.181020         0.302399
 H        -1.300967        -1.633867        -0.333196
 H         0.004719         1.303700         1.679471
 H        -0.152716         2.293891         0.123965
 H        -2.570111         1.878438         0.625941
