19
Iteration:  1700charge 0 multiplicity 1
 C        -3.764646        -0.387012         1.167225
 C        -2.369771        -0.059992         1.460377
 C        -1.495486        -1.284538         1.755836
 C        -0.308372        -1.325019         0.803675
 C        -0.011161        -0.002685         0.211465
 O         0.205481         0.099616        -0.965507
 C        -0.113891         1.239405         0.923295
 C        -1.681017         1.279132         1.075582
 O        -2.184130         1.022098         2.374174
 H        -4.218454        -1.025405         1.873156
 H        -4.444365         0.497269         0.989327
 H        -3.761889        -0.993978         0.278088
 H        -1.325305        -1.202486         2.813481
 H        -1.936756        -2.193393         1.551446
 H         0.634819        -1.712335         1.264328
 H        -0.631655        -1.907012        -0.095761
 H         0.396407         1.300886         1.953161
 H         0.288187         2.102687         0.345685
 H        -2.302882         1.965070         0.484558
