19
Iteration:  2354
 C        -4.052132        -0.358837         1.345775
 C        -2.533691        -0.104928         1.494995
 C        -1.597149        -1.322896         1.402770
 C        -0.105839        -1.120941         0.940746
 C         0.095044         0.063126         0.024340
 O         0.566995        -0.010334        -1.117116
 C        -0.349273         1.394340         0.704232
 C        -1.809447         1.262320         1.333403
 O        -2.022063         0.794079         2.619307
 H        -4.300016        -1.239254         1.988078
 H        -4.688584         0.403749         1.635273
 H        -4.277290        -0.593866         0.261187
 H        -1.589158        -1.723852         2.393143
 H        -1.916281        -2.058022         0.724047
 H         0.567294        -1.007547         1.788614
 H         0.260435        -2.055036         0.497478
 H         0.352005         1.896359         1.465117
 H        -0.447492         2.231349        -0.106386
 H        -2.327107         2.137015         1.127988
