19
Iteration:  3311
 C        -3.732462        -0.544104         1.166471
 C        -2.370539        -0.157428         1.624238
 C        -1.218700        -1.192992         1.751972
 C        -0.463930        -1.310488         0.439470
 C         0.048085         0.073343         0.030653
 O         0.661122         0.120310        -1.018348
 C        -0.478654         1.274482         0.864184
 C        -1.955819         1.269865         1.266837
 O        -2.278717         1.022087         2.648840
 H        -4.196033        -1.392206         1.722545
 H        -4.379634         0.321675         1.289698
 H        -3.663193        -0.857344         0.106069
 H        -0.669077        -0.882221         2.613815
 H        -1.623582        -2.081166         2.209996
 H         0.517504        -1.795847         0.435886
 H        -1.051916        -1.842123        -0.390607
 H         0.020477         1.319420         1.804260
 H        -0.240989         2.206619         0.345072
 H        -2.650379         2.061616         0.821908
