19
Iteration:  1228
 C        -3.864355        -0.181651         2.180548
 C        -2.514528        -0.098874         1.544128
 C        -1.943682        -1.286039         0.727071
 C        -0.389190        -1.248274         0.725783
 C         0.075502         0.112107         0.190362
 O         1.230701         0.283977        -0.192219
 C        -0.916771         1.260391         0.100230
 C        -2.020795         1.167311         1.044910
 O        -1.558666         0.574130         2.340522
 H        -3.963615        -1.206481         2.661298
 H        -4.116943         0.487787         2.955437
 H        -4.720000        -0.101625         1.466356
 H        -2.258115        -2.333708         1.137902
 H        -2.343492        -1.094010        -0.289885
 H        -0.104211        -1.436922         1.816875
 H        -0.034967        -1.956511         0.022535
 H        -0.287483         2.046041         0.267228
 H        -1.171019         1.442981        -0.949713
 H        -2.703752         2.002206         1.167758
