19
Iteration:  4115charge 0 multiplicity 1
 C        -4.007199        -0.445162         1.748596
 C        -2.552085        -0.080971         1.514609
 C        -1.631630        -1.371575         1.004951
 C        -0.176238        -1.040012         0.992706
 C         0.148536         0.206103         0.058060
 O         0.822816         0.193191        -1.006106
 C        -0.679309         1.413129         0.397385
 C        -1.832153         1.232639         1.370542
 O        -1.872780         0.506977         2.652703
 H        -4.090917        -0.972510         2.707401
 H        -4.708612         0.438984         1.805127
 H        -4.310800        -1.112231         0.977708
 H        -1.860705        -2.220086         1.621424
 H        -2.111131        -1.567348         0.015381
 H        -0.043991        -0.714336         2.012815
 H         0.342461        -2.008063         0.801101
 H         0.172962         2.082301         0.641552
 H        -1.217498         1.975698        -0.470725
 H        -2.468936         2.200085         1.270129
