19
Iteration:  2589charge 0 multiplicity 1
 C        -3.875663        -0.561065         1.479806
 C        -2.380438        -0.128284         1.661889
 C        -1.318303        -1.270097         1.760852
 C        -0.820292        -1.202092         0.323621
 C         0.073376         0.085094         0.049807
 O         1.030756         0.126800        -0.714899
 C        -0.499069         1.316002         0.668277
 C        -1.929100         1.108326         1.037635
 O        -2.107776         1.065543         2.473335
 H        -3.979720        -1.594178         1.932480
 H        -4.477034         0.231464         2.036932
 H        -4.056040        -0.628966         0.397696
 H        -0.480916        -0.942364         2.418328
 H        -1.784268        -2.246934         2.169295
 H        -0.259592        -2.063504        -0.218474
 H        -1.695576        -1.006787        -0.329159
 H        -0.011394         1.306314         1.780556
 H        -0.196558         2.239925         0.204512
 H        -2.695280         1.742737         0.465217
