19
Iteration:  3623charge 0 multiplicity 1
 C        -3.702381        -0.255271         2.308816
 C        -2.380977        -0.225554         1.562089
 C        -1.705558        -1.463753         1.008834
 C        -0.531903        -1.182088        -0.170420
 C         0.029936         0.114047         0.192859
 O         1.088943         0.455136         0.612361
 C        -1.121831         1.226196        -0.163445
 C        -2.183550         1.100287         0.959800
 O        -1.391352         0.758877         2.218753
 H        -3.397990        -0.166946         3.409049
 H        -4.445353         0.485842         2.107246
 H        -4.127933        -1.364228         2.115618
 H        -1.213863        -1.750213         1.977761
 H        -2.390523        -2.252377         0.602191
 H         0.094247        -2.065095        -0.059893
 H        -1.043254        -0.974063        -1.199493
 H        -0.578575         2.106162        -0.003981
 H        -1.776543         1.274287        -1.106375
 H        -2.962055         1.805747         1.280802
