19
Iteration:   556charge 0 multiplicity 1
 C        -3.897909        -0.322625         1.509521
 C        -2.408898        -0.119803         1.599859
 C        -1.458518        -1.254593         1.672718
 C        -0.646950        -1.292940         0.350650
 C         0.060684         0.001748        -0.069111
 O         1.081955         0.022088        -0.776582
 C        -0.439235         1.359040         0.641119
 C        -1.910765         1.221286         1.202898
 O        -2.211348         0.970585         2.563116
 H        -4.053726        -0.355682         2.638253
 H        -4.536389         0.415942         1.173964
 H        -4.225216        -1.319773         0.885926
 H        -0.807798        -1.122928         2.536532
 H        -1.962748        -2.159252         1.720842
 H         0.207195        -2.007215         0.594142
 H        -1.214849        -1.752567        -0.488553
 H         0.307915         1.550602         1.418216
 H        -0.463820         2.209378         0.045981
 H        -2.626385         1.838380         0.770652
