19
Iteration:  4859charge 0 multiplicity 1
 C        -3.769290        -0.503646         1.313769
 C        -2.367091        -0.085487         1.565838
 C        -1.286599        -1.281474         1.749008
 C        -0.351557        -1.341606         0.600036
 C        -0.160558         0.106100        -0.035607
 O         0.569657         0.124627        -1.016472
 C        -0.438105         1.348586         0.834287
 C        -1.872447         1.276640         1.210705
 O        -2.204289         0.924840         2.517039
 H        -3.958300        -1.388854         1.862995
 H        -4.381231         0.398917         1.624527
 H        -3.873919        -0.624131         0.233392
 H        -0.653218        -1.019829         2.682247
 H        -1.673432        -2.289362         2.043905
 H         0.669225        -1.584986         0.915739
 H        -0.625516        -2.055685        -0.200313
 H         0.336866         1.458225         1.656287
 H        -0.191511         2.269656         0.226887
 H        -2.438005         2.101302         0.852673
