19
Iteration:  1660
 C        -3.769844        -0.277415         0.944550
 C        -2.366045        -0.071833         1.537732
 C        -1.396777        -1.241339         1.781464
 C        -0.110663        -1.260973         0.898473
 C         0.001422        -0.022566         0.086465
 O         0.027127         0.026965        -1.137788
 C        -0.124411         1.123393         1.067245
 C        -1.693749         1.180831         1.148871
 O        -2.278589         1.116695         2.482297
 H        -4.293296        -1.156744         1.451364
 H        -4.326458         0.581353         1.033795
 H        -3.598620        -0.386098        -0.183701
 H        -1.089060        -1.291137         2.863973
 H        -2.074661        -2.217779         1.729543
 H         0.791101        -1.439073         1.442472
 H        -0.299446        -2.049355         0.142601
 H         0.355159         0.851433         1.970900
 H         0.292383         2.006993         0.714977
 H        -2.115999         1.931212         0.507438
