19
Iteration:  2869
 C        -3.622895        -0.390320         2.415854
 C        -2.382756        -0.083532         1.521220
 C        -1.788491        -1.388464         0.976961
 C        -0.595912        -1.296312         0.031146
 C        -0.021277         0.057569         0.164467
 O         1.055898         0.331196         0.650359
 C        -0.915813         1.239305        -0.192885
 C        -2.057900         1.201912         0.811732
 O        -1.537213         0.886005         2.168528
 H        -3.393511        -0.905659         3.333406
 H        -4.183987         0.569010         2.804599
 H        -4.318873        -0.987012         1.843017
 H        -1.616464        -1.935678         1.992445
 H        -2.585803        -1.895117         0.437351
 H         0.192719        -2.053141         0.156973
 H        -0.975680        -1.409748        -1.008448
 H        -0.288890         2.079323        -0.140995
 H        -1.522532         1.318134        -1.232508
 H        -2.825893         1.955090         0.774150
