19
Iteration:  1811charge 0 multiplicity 1
 C        -3.873410        -0.555599         1.552937
 C        -2.418360        -0.059314         1.690884
 C        -1.496325        -1.247386         1.729827
 C        -0.816350        -1.176520         0.307739
 C         0.115864         0.044745         0.043847
 O         1.115768        -0.092247        -0.682924
 C        -0.400808         1.376812         0.591534
 C        -1.843941         1.198701         1.097181
 O        -2.202266         1.116898         2.460058
 H        -4.029895        -1.348834         2.317754
 H        -4.520849         0.210577         1.752955
 H        -4.027571        -1.016272         0.516408
 H        -0.750712        -1.124005         2.472296
 H        -2.053875        -2.124682         1.825522
 H        -0.257992        -2.069487         0.054760
 H        -1.518524        -1.154283        -0.563730
 H         0.345797         1.568953         1.462385
 H        -0.381319         2.165884        -0.143288
 H        -2.483554         1.808621         0.483458
