19
Iteration:   680
 C        -3.883892        -0.176357         2.202244
 C        -2.409930        -0.128810         1.628720
 C        -1.694274        -1.418388         1.241771
 C        -0.708211        -1.236853         0.055178
 C         0.050641         0.088102         0.088384
 O         1.217464         0.239828         0.312465
 C        -0.835538         1.271835        -0.085534
 C        -1.956858         1.077592         0.941814
 O        -1.637466         0.804473         2.276599
 H        -3.939449        -0.916579         3.000043
 H        -4.160386         0.935573         2.338806
 H        -4.677872        -0.383366         1.435712
 H        -1.209041        -1.912748         2.084354
 H        -2.492833        -2.101398         0.830595
 H        -0.081673        -2.093908        -0.103214
 H        -1.342197        -1.162697        -0.852231
 H        -0.375022         2.184571         0.037653
 H        -1.113190         1.233300        -1.158509
 H        -2.468726         2.064856         0.894733
