19
Iteration:  2960
 C        -3.899213        -0.264445         2.007471
 C        -2.413964        -0.129652         1.613238
 C        -1.782011        -1.446541         1.163575
 C        -0.514650        -1.290747         0.191732
 C         0.048291         0.109584         0.114092
 O         1.215593         0.367244         0.148248
 C        -1.018131         1.246696        -0.119469
 C        -1.943138         1.201163         1.075721
 O        -1.575410         0.794595         2.479179
 H        -4.042480        -1.036586         2.852132
 H        -4.264510         0.677022         2.257801
 H        -4.232831        -0.638883         1.020865
 H        -1.552664        -2.264546         1.910629
 H        -2.557485        -1.973834         0.517212
 H         0.385039        -1.897911         0.568527
 H        -0.896478        -1.650615        -0.790707
 H        -0.412009         2.227152        -0.129500
 H        -1.561802         1.111359        -1.168802
 H        -2.670549         2.037234         1.173235
