19
Iteration:  3020
 C        -3.930415        -0.260374         1.942732
 C        -2.510513        -0.162220         1.625913
 C        -1.700245        -1.431805         1.263127
 C        -0.401937        -1.194901         0.464546
 C         0.125165         0.096290         0.042342
 O         1.236385         0.262147        -0.390155
 C        -0.769887         1.366061         0.247405
 C        -2.011213         1.145599         1.037431
 O        -1.897517         0.742586         2.468265
 H        -4.311697        -1.193203         2.247565
 H        -4.336513         0.632646         2.594022
 H        -4.578671        -0.072890         1.070100
 H        -1.478124        -2.031591         2.143949
 H        -2.358658        -1.999217         0.636483
 H         0.414249        -1.669781         1.010797
 H        -0.426833        -1.897940        -0.413575
 H        -0.106040         2.194398         0.627236
 H        -0.941136         1.621532        -0.794725
 H        -2.757547         1.920261         0.931849
