19
Iteration:  3212
 C        -3.855570        -0.437267         1.345726
 C        -2.410869        -0.133912         1.527116
 C        -1.477911        -1.402502         1.498719
 C        -0.028831        -1.190606         0.930623
 C         0.021189         0.096371         0.046490
 O         0.356610         0.158942        -1.091811
 C        -0.335521         1.350019         0.829454
 C        -1.784272         1.172558         1.153342
 O        -2.236484         0.960325         2.539624
 H        -3.960591        -1.643457         1.469552
 H        -4.413683         0.254049         1.983435
 H        -4.144496        -0.040173         0.314432
 H        -1.599519        -2.086318         2.378270
 H        -1.935182        -1.956870         0.625686
 H         0.570573        -1.129403         1.852706
 H         0.450907        -2.060895         0.348446
 H         0.316779         1.342901         1.629434
 H        -0.153062         2.302985         0.278900
 H        -2.482903         1.942510         0.741492
