19
Iteration:  4799charge 0 multiplicity 1
 C        -3.825109        -0.581519         1.424326
 C        -2.418834        -0.137742         1.644596
 C        -1.253265        -1.216603         1.802769
 C        -0.481989        -1.201448         0.511246
 C        -0.059400         0.060386        -0.097649
 O         0.702972         0.186268        -1.036347
 C        -0.319656         1.211251         0.833709
 C        -1.833449         1.195318         1.118060
 O        -2.317995         1.089644         2.529136
 H        -4.025625        -1.681054         1.331074
 H        -4.339854        -0.311451         2.360603
 H        -4.334391        -0.117998         0.572684
 H        -0.647227        -1.091072         2.698841
 H        -1.739996        -2.239402         1.784825
 H         0.495754        -1.653315         0.749957
 H        -0.791961        -1.924850        -0.249919
 H         0.097507         0.853336         1.781504
 H         0.029071         2.225877         0.508355
 H        -2.486380         1.868474         0.495540
