19
Iteration:  2413charge 0 multiplicity 1
 C        -3.924085        -0.379718         1.378300
 C        -2.426363        -0.137284         1.511004
 C        -1.490737        -1.360584         1.520293
 C        -0.181417        -1.287715         0.729376
 C         0.050789         0.072208         0.148083
 O         0.543281         0.079558        -0.954028
 C        -0.358026         1.399933         0.723148
 C        -1.832764         1.233220         1.146232
 O        -2.113454         0.960052         2.542156
 H        -4.176911        -1.445927         1.488806
 H        -4.449811         0.254244         2.252851
 H        -4.437339        -0.108564         0.470511
 H        -1.297656        -1.645967         2.613637
 H        -2.076402        -2.268855         1.152936
 H         0.744699        -1.569438         1.387547
 H        -0.376109        -1.862601        -0.194152
 H         0.096907         1.605773         1.613354
 H        -0.321165         2.171309         0.010647
 H        -2.507988         2.042155         0.684659
