19
Iteration:   468charge 0 multiplicity 1
 C        -3.713095        -0.358163         1.065821
 C        -2.352934        -0.049725         1.624817
 C        -1.325138        -1.174483         1.938291
 C        -0.487667        -1.368124         0.566754
 C         0.016626        -0.034793        -0.001768
 O         0.451401         0.061570        -1.128088
 C        -0.216407         1.178363         1.058881
 C        -1.802038         1.187907         1.223876
 O        -2.339374         1.114296         2.513426
 H        -4.263404        -1.282518         1.401949
 H        -4.363718         0.518301         1.083129
 H        -3.625362        -0.519178        -0.111371
 H        -0.690014        -0.779085         2.742462
 H        -1.756480        -2.107357         2.264688
 H         0.417345        -1.999667         0.661640
 H        -1.021874        -1.846493        -0.260885
 H         0.319505         0.957646         1.952908
 H         0.099931         2.086828         0.609464
 H        -2.232901         1.876371         0.539834
