19
Iteration:  3722charge 0 multiplicity 1
 C        -3.804131        -0.399162         2.172165
 C        -2.469196        -0.221192         1.601083
 C        -1.789779        -1.457279         1.051596
 C        -0.463292        -1.182433         0.327819
 C         0.083420         0.245539         0.135836
 O         1.271780         0.436602        -0.056816
 C        -0.950738         1.306013         0.049463
 C        -2.063715         1.118229         1.058955
 O        -1.674152         0.735240         2.375969
 H        -3.870580        -1.267661         2.853287
 H        -3.996025         0.610563         2.636350
 H        -4.586121        -0.585110         1.350884
 H        -1.536482        -2.331942         1.718020
 H        -2.654258        -1.770299         0.373172
 H         0.390067        -1.745588         0.676557
 H        -0.626243        -1.486455        -0.729179
 H        -0.601103         2.306020         0.130887
 H        -1.431597         1.265683        -1.029896
 H        -2.997084         1.631131         0.947386
