19
Iteration:  1853charge 0 multiplicity 1
 C        -3.900728        -0.375066         1.791970
 C        -2.434169        -0.066258         1.575648
 C        -1.407383        -1.141140         1.471439
 C        -0.706049        -1.311231         0.108387
 C         0.057334        -0.076928        -0.004751
 O         1.224877         0.003883        -0.309269
 C        -0.642551         1.237436         0.485475
 C        -2.052331         1.207660         1.026105
 O        -2.034252         1.030567         2.453707
 H        -4.051138        -0.991776         2.704755
 H        -4.243159         0.664210         2.105101
 H        -4.508305        -0.721631         0.879950
 H        -0.663359        -0.803960         2.164089
 H        -1.502693        -2.105351         1.863854
 H        -0.080235        -2.184607        -0.060617
 H        -1.401156        -1.316737        -0.700045
 H        -0.194032         1.538376         1.511347
 H        -0.476646         2.018035        -0.219986
 H        -2.755665         1.938997         0.768886
