19
Iteration:  3030
 C        -3.974433        -0.249013         1.918197
 C        -2.472449        -0.183903         1.599407
 C        -1.705205        -1.412334         1.233363
 C        -0.371130        -1.251773         0.467005
 C         0.127774         0.154374         0.034534
 O         1.265182         0.237967        -0.471210
 C        -0.743041         1.277464         0.339370
 C        -2.104214         1.114832         1.074118
 O        -1.897730         0.835286         2.473720
 H        -4.259733        -1.132867         2.436486
 H        -4.135415         0.621534         2.714069
 H        -4.477185        -0.114974         0.931004
 H        -1.631667        -2.025307         2.100219
 H        -2.412164        -1.992727         0.632978
 H         0.388279        -1.400149         1.190555
 H        -0.202012        -1.837285        -0.476606
 H        -0.186300         1.997709         1.053687
 H        -0.997911         1.795651        -0.637800
 H        -2.900424         1.803861         0.802711
