19
Iteration:  4608
 C        -3.900713        -0.563607         1.741339
 C        -2.462663        -0.126354         1.567151
 C        -1.406894        -1.249671         1.667494
 C        -0.586313        -1.322576         0.298845
 C         0.036513         0.078801        -0.054190
 O         1.089238         0.268005        -0.573532
 C        -0.604955         1.275140         0.467646
 C        -1.962131         1.203016         1.083574
 O        -2.047565         0.974431         2.460651
 H        -4.326937        -1.514205         1.306425
 H        -3.928251        -0.744323         2.832138
 H        -4.479496         0.374554         1.463333
 H        -0.854139        -1.037294         2.601820
 H        -1.796559        -2.240242         1.851328
 H         0.145410        -2.108387         0.036618
 H        -1.362560        -1.659230        -0.387582
 H        -0.006601         1.772590         1.257652
 H        -0.604999         2.041247        -0.368001
 H        -2.665875         1.991006         0.723727
