19
Iteration:    54
 C        -3.704068        -0.208720         2.349868
 C        -2.430623         0.014133         1.515676
 C        -1.784286        -1.387069         1.147591
 C        -0.748822        -1.245755        -0.028528
 C         0.015367        -0.005510         0.085430
 O         1.133546        -0.106709         0.680646
 C        -0.819466         1.267037        -0.127712
 C        -2.013304         1.215856         0.806884
 O        -1.552397         1.027698         2.121246
 H        -3.794770        -1.288453         2.517842
 H        -3.673700         0.502048         3.259158
 H        -4.626500        -0.036498         1.677953
 H        -1.310708        -1.657560         2.036449
 H        -2.478641        -2.127901         0.919792
 H        -0.027265        -1.968977        -0.123354
 H        -1.332182        -1.279531        -0.994550
 H        -0.294587         2.094353         0.258114
 H        -1.123673         1.388749        -1.175361
 H        -2.654895         2.119073         0.606894
