19
Iteration:  4459charge 0 multiplicity 1
 C        -3.904267        -0.500562         2.031051
 C        -2.459505        -0.145275         1.666619
 C        -1.612391        -1.384003         1.277929
 C        -0.646311        -1.222466         0.094114
 C         0.122712         0.088538         0.105681
 O         1.305279         0.297415        -0.165966
 C        -0.890822         1.219601         0.246535
 C        -2.140257         1.213734         1.036700
 O        -1.662518         0.988838         2.440855
 H        -3.716277        -1.309238         2.645534
 H        -4.597313         0.309155         2.408737
 H        -4.404887        -0.863098         1.107337
 H        -1.118742        -1.719567         2.161115
 H        -2.280325        -2.324405         1.094419
 H         0.094241        -2.080639        -0.224530
 H        -1.256144        -1.010093        -0.834149
 H        -0.266097         2.186755         0.556804
 H        -1.223465         1.447452        -0.822121
 H        -2.982075         1.843951         0.801589
