19
Iteration:  4687
 C        -3.876070        -0.619704         1.539805
 C        -2.420149        -0.086451         1.543904
 C        -1.334472        -1.096738         1.767112
 C        -0.612061        -1.375815         0.436026
 C         0.023610         0.032390        -0.051342
 O         0.947613         0.215223        -0.793257
 C        -0.508516         1.265705         0.586148
 C        -1.886386         1.190014         1.124252
 O        -2.187122         0.994361         2.564926
 H        -4.262407        -0.322071         0.594880
 H        -3.880503        -1.733054         1.894334
 H        -4.449988         0.048805         2.246645
 H        -0.561194        -0.628555         2.266404
 H        -1.824233        -2.046155         2.141953
 H         0.343826        -2.033567         0.595697
 H        -1.114882        -1.818272        -0.417147
 H         0.288376         1.861136         1.201534
 H        -0.626469         1.976347        -0.146930
 H        -2.583650         1.917996         0.698741
