19
Iteration:  1868
 C        -3.921776        -0.312373         1.860839
 C        -2.474550        -0.124950         1.585189
 C        -1.410625        -1.284148         1.501246
 C        -0.782727        -1.315627         0.098226
 C         0.045849         0.044957         0.020274
 O         1.256871         0.020364        -0.233481
 C        -0.606746         1.396674         0.418469
 C        -2.010904         1.200597         0.975836
 O        -1.971394         0.943402         2.416570
 H        -4.077728        -0.972642         2.734181
 H        -4.488222         0.554930         1.989867
 H        -4.398834        -0.859436         1.038603
 H        -0.620175        -1.200151         2.256139
 H        -2.039816        -2.120009         1.819968
 H        -0.053167        -2.124242         0.144754
 H        -1.598127        -1.437347        -0.669030
 H         0.205982         1.874890         1.004332
 H        -0.577515         2.030479        -0.522984
 H        -2.833532         1.854159         0.538803
