19
Iteration:  4213
 C        -4.056332        -0.383981         2.144724
 C        -2.442566        -0.168657         1.652174
 C        -1.743249        -1.362633         0.953479
 C        -0.331907        -1.126063         0.544558
 C         0.051037         0.212399         0.000024
 O         1.259983         0.308773        -0.256991
 C        -0.971620         1.370126        -0.014602
 C        -2.025141         1.186005         1.141792
 O        -1.587075         0.574103         2.490896
 H        -4.349606        -1.445524         2.273468
 H        -4.189002         0.081706         3.119470
 H        -4.756927        -0.018503         1.437835
 H        -1.886536        -2.238397         1.683837
 H        -2.408196        -1.560227         0.069661
 H         0.350576        -1.194840         1.380758
 H        -0.195933        -1.881720        -0.281573
 H        -0.635396         2.369686         0.004431
 H        -1.472496         1.306281        -1.070640
 H        -2.817922         2.011604         1.362740
