19
Iteration:  2467charge 0 multiplicity 1
 C        -3.878790        -0.337210         1.433707
 C        -2.406616        -0.082878         1.645532
 C        -1.471147        -1.332035         1.564016
 C        -0.267132        -1.266279         0.548666
 C        -0.047772         0.045633        -0.045776
 O         0.808391         0.107153        -0.946279
 C        -0.478593         1.278852         0.746697
 C        -1.895745         1.219385         1.168389
 O        -2.213470         0.958652         2.599310
 H        -4.226151        -0.987531         2.246447
 H        -4.437995         0.728692         1.347274
 H        -3.927506        -0.926495         0.559339
 H        -1.016044        -1.390095         2.592865
 H        -2.142848        -2.213565         1.388202
 H         0.711522        -1.394285         1.194727
 H        -0.272685        -2.066961        -0.226437
 H         0.157687         1.160661         1.670514
 H        -0.261251         2.239521         0.257208
 H        -2.632557         1.780239         0.554907
