19
Iteration:  2219
 C        -4.066395        -0.231114         1.675050
 C        -2.529367        -0.095038         1.667180
 C        -1.712658        -1.360537         1.226575
 C        -0.286066        -1.207365         0.784258
 C         0.168242         0.108255         0.128581
 O         1.051619         0.168430        -0.738833
 C        -0.713452         1.288519         0.361721
 C        -1.987799         1.090103         1.108263
 O        -1.764439         0.784201         2.565704
 H        -4.468735        -1.201847         1.983249
 H        -4.640171         0.578962         2.326286
 H        -4.222725         0.188909         0.693407
 H        -1.862927        -2.174979         1.937162
 H        -2.370498        -1.641625         0.385127
 H         0.333952        -1.669590         1.531637
 H        -0.175702        -1.853449        -0.076749
 H        -0.028747         1.908622         1.048979
 H        -0.767431         1.773035        -0.568173
 H        -2.710127         2.015978         0.870725
