19
Iteration:  2866charge 0 multiplicity 1
 C        -3.650006        -0.367358         2.418866
 C        -2.404843        -0.101413         1.531067
 C        -1.764064        -1.366872         0.982041
 C        -0.574934        -1.342097        -0.009871
 C         0.001903         0.073984         0.164051
 O         1.043540         0.326607         0.646618
 C        -0.942923         1.208734        -0.183015
 C        -2.059334         1.212662         0.849330
 O        -1.534075         0.906932         2.161376
 H        -3.358099        -0.920894         3.291823
 H        -4.078187         0.620358         2.712664
 H        -4.289727        -1.003079         1.740357
 H        -1.577973        -2.013299         1.897283
 H        -2.582558        -1.911477         0.487492
 H         0.179335        -2.017004         0.222626
 H        -0.933597        -1.374224        -1.051876
 H        -0.288811         2.116527        -0.138093
 H        -1.499704         1.264604        -1.112166
 H        -2.834117         1.982676         0.797133
