19
Iteration:  2179charge 0 multiplicity 1
 C        -4.012552        -0.238958         1.924568
 C        -2.507948        -0.104952         1.454710
 C        -1.779438        -1.369370         1.228837
 C        -0.422381        -1.248956         0.573628
 C         0.060593         0.108082         0.011236
 O         1.225553         0.181347        -0.376658
 C        -0.691871         1.308818         0.187705
 C        -1.943080         1.256646         1.123717
 O        -1.839563         0.700014         2.478356
 H        -4.178272        -1.323001         2.192500
 H        -4.058563         0.321685         2.813943
 H        -4.782957         0.021124         1.142486
 H        -1.597677        -1.657131         2.274383
 H        -2.319634        -2.234299         0.849179
 H         0.384951        -1.334953         1.323399
 H        -0.261512        -2.038565        -0.230265
 H         0.005405         2.086173         0.468450
 H        -1.108015         1.745223        -0.812283
 H        -2.549288         2.057167         1.076631
