19
Iteration:  1603charge 0 multiplicity 1
 C        -3.683369        -0.353128         0.793772
 C        -2.369390        -0.001668         1.599490
 C        -1.447751        -1.203814         1.885373
 C        -0.357646        -1.338908         0.794895
 C        -0.026517        -0.080717         0.155252
 O         0.128840         0.058551        -1.032382
 C        -0.184652         1.279225         0.849402
 C        -1.674643         1.246341         1.236089
 O        -2.148448         0.993051         2.597441
 H        -4.378962        -1.039249         1.270103
 H        -4.309888         0.451523         0.308584
 H        -3.245905        -1.060973         0.080779
 H        -0.896215        -1.108659         2.853494
 H        -2.100992        -2.166752         1.838836
 H         0.619386        -1.562545         1.169705
 H        -0.579371        -2.063786        -0.028709
 H         0.492192         1.423980         1.703767
 H         0.023427         1.984192         0.017511
 H        -2.279884         2.037384         0.752110
