19
Iteration:  1353charge 0 multiplicity 1
 C        -3.719136        -0.233912         2.370309
 C        -2.491397        -0.115621         1.506141
 C        -1.795809        -1.382407         1.055256
 C        -0.665588        -1.175700         0.014339
 C         0.091608         0.133810         0.063115
 O         1.202235         0.104631         0.566722
 C        -0.876137         1.296782        -0.179999
 C        -2.053267         1.158576         0.910079
 O        -1.591546         0.787679         2.218226
 H        -3.450422        -0.587979         3.332708
 H        -4.199214         0.806748         2.400877
 H        -4.610266        -0.763726         2.087087
 H        -1.360255        -1.880754         1.939292
 H        -2.417003        -2.224654         0.631135
 H         0.147276        -1.834759         0.221373
 H        -1.109615        -1.368160        -1.031772
 H        -0.431957         2.337737         0.058556
 H        -1.335403         1.285602        -1.207008
 H        -2.726740         2.054438         0.938424
