19
Iteration:  1946
 C        -3.880487        -0.101985         2.062375
 C        -2.463398        -0.090453         1.482471
 C        -1.736476        -1.397582         1.265386
 C        -0.548600        -1.327848         0.194233
 C         0.031079         0.029727         0.026568
 O         1.224791         0.316126         0.182902
 C        -0.909080         1.287432        -0.059181
 C        -1.925349         1.147383         1.014311
 O        -1.696202         0.707590         2.394757
 H        -3.815123        -0.802188         2.892097
 H        -4.085291         0.886602         2.610053
 H        -4.726724        -0.392750         1.486724
 H        -1.356017        -1.849527         2.205182
 H        -2.459762        -2.226927         1.006666
 H         0.272879        -2.064885         0.422685
 H        -0.907616        -1.798921        -0.781131
 H        -0.166856         2.051265         0.078059
 H        -1.324422         1.428323        -1.139545
 H        -2.543953         2.114592         0.937885
