19
Iteration:  4949
 C        -3.823682        -0.604074         1.478815
 C        -2.386375        -0.122322         1.648146
 C        -1.241177        -1.199178         1.749471
 C        -0.513689        -1.337037         0.403559
 C         0.018020         0.088419        -0.005796
 O         0.716157         0.248708        -1.006755
 C        -0.390609         1.236134         0.855341
 C        -1.917392         1.234150         1.110519
 O        -2.254818         1.059466         2.520912
 H        -4.401511        -0.521160         2.400972
 H        -4.341750        -0.102263         0.599512
 H        -3.947190        -1.659791         1.283296
 H        -0.492020        -0.901904         2.501805
 H        -1.754684        -2.170220         2.097623
 H         0.291582        -2.124283         0.350321
 H        -1.186555        -1.670626        -0.404875
 H         0.184996         1.027819         1.873528
 H         0.050949         2.078958         0.450665
 H        -2.605925         1.859718         0.505727
