19
Iteration:  1464
 C        -3.983090        -0.370237         1.549336
 C        -2.483132        -0.004463         1.667959
 C        -1.434495        -1.218312         1.619168
 C        -0.721488        -1.315105         0.295187
 C         0.096799        -0.068041         0.024082
 O         1.187189         0.071211        -0.531831
 C        -0.587168         1.245143         0.413573
 C        -1.950380         1.274859         1.125391
 O        -1.999044         0.942683         2.568243
 H        -4.337737        -0.972509         2.443245
 H        -4.559117         0.501029         1.522094
 H        -4.080980        -1.029291         0.632656
 H        -0.786834        -0.847043         2.382168
 H        -1.884135        -2.175602         1.932455
 H         0.084193        -2.108920         0.264533
 H        -1.449402        -1.431721        -0.536280
 H         0.281614         1.852069         0.872720
 H        -0.694385         1.714287        -0.550387
 H        -2.683389         2.032902         0.903964
