19
Iteration:    31charge 0 multiplicity 1
 C        -3.873102        -0.142473         2.277471
 C        -2.396589        -0.051911         1.602620
 C        -1.725024        -1.328060         1.181563
 C        -0.851512        -1.263031        -0.055499
 C         0.090638        -0.049092         0.186298
 O         1.310425         0.005489         0.460720
 C        -0.707439         1.227323        -0.081269
 C        -2.057869         1.145465         0.825516
 O        -1.662435         1.005032         2.230415
 H        -4.015600        -1.087437         2.779009
 H        -3.652867         0.793348         2.966917
 H        -4.795943        -0.049977         1.587437
 H        -1.260019        -1.803464         1.981899
 H        -2.551137        -1.926187         0.939029
 H        -0.350001        -2.136616        -0.209771
 H        -1.406602        -1.107395        -1.048196
 H        -0.136931         2.071501         0.134229
 H        -0.862187         1.056009        -1.174587
 H        -2.921286         1.845980         0.550884
