19
Iteration:   622charge 0 multiplicity 1
 C        -3.936417        -0.338316         1.874885
 C        -2.445748        -0.095831         1.612375
 C        -1.628137        -1.359818         1.439903
 C        -0.648474        -1.264339         0.302624
 C         0.069834         0.058667         0.036279
 O         1.245364         0.012868        -0.269802
 C        -0.702825         1.406508         0.181551
 C        -1.946489         1.326551         1.046008
 O        -1.896856         0.898159         2.457891
 H        -3.909126        -1.252972         2.531088
 H        -4.492716         0.277959         2.428222
 H        -4.356243        -0.716312         0.869089
 H        -1.044468        -1.666142         2.296696
 H        -2.339419        -2.087787         1.308308
 H         0.234402        -1.986311         0.390172
 H        -1.148025        -1.450152        -0.704768
 H         0.040526         2.091205         0.649686
 H        -0.827685         1.748220        -0.810960
 H        -2.724002         1.951339         0.897974
