19
Iteration:  2511
 C        -3.977910        -0.476350         1.439818
 C        -2.496967        -0.137024         1.596246
 C        -1.472494        -1.283618         1.701967
 C        -0.519206        -1.241876         0.506998
 C         0.081738         0.089014         0.061407
 O         0.827414         0.204410        -0.897032
 C        -0.347373         1.340579         0.696285
 C        -1.795213         1.156770         1.106935
 O        -2.107489         0.904139         2.531469
 H        -4.494905        -0.596962         2.387274
 H        -4.610983         0.262105         0.766454
 H        -4.142399        -1.429319         1.015570
 H        -0.897384        -1.021096         2.631528
 H        -1.850817        -2.331981         1.853798
 H         0.399093        -1.885229         0.706466
 H        -1.129615        -1.535868        -0.360238
 H         0.323218         1.585563         1.590847
 H        -0.286136         2.078273        -0.110872
 H        -2.369420         2.055349         0.822350
