19
Iteration:  2995charge 0 multiplicity 1
 C        -3.967332        -0.363918         1.872396
 C        -2.559548        -0.082155         1.479704
 C        -1.766890        -1.415245         1.306892
 C        -0.500696        -1.236448         0.427658
 C         0.127713         0.147445         0.142663
 O         1.270706         0.277824        -0.223114
 C        -0.937641         1.307747         0.099024
 C        -1.965104         1.240187         1.189932
 O        -1.583114         0.731578         2.426017
 H        -4.190886        -1.368818         2.272941
 H        -4.464833         0.385841         2.474930
 H        -4.713699        -0.323368         1.005060
 H        -1.508513        -1.706432         2.318898
 H        -2.473088        -2.147750         0.803578
 H         0.276055        -1.891488         0.789064
 H        -0.573864        -1.657096        -0.641851
 H        -0.367426         2.359351         0.125365
 H        -1.302328         1.219049        -0.999362
 H        -2.683471         2.096515         1.178098
