19
Iteration:   673
 C        -3.904264        -0.227660         2.151073
 C        -2.458967        -0.140412         1.677084
 C        -1.699718        -1.386356         1.251391
 C        -0.708270        -1.270927         0.046145
 C         0.082286         0.032153         0.067783
 O         1.283371         0.259533         0.238653
 C        -0.806063         1.225880        -0.026011
 C        -1.993650         1.176906         0.893439
 O        -1.660408         0.835932         2.334020
 H        -4.065714        -0.922986         2.981176
 H        -4.152833         0.800910         2.619740
 H        -4.526161        -0.400944         1.306481
 H        -1.180783        -1.881932         2.110476
 H        -2.550338        -2.095846         0.921094
 H        -0.065958        -2.118308        -0.174645
 H        -1.395839        -1.101044        -0.763253
 H        -0.208391         2.215481         0.024824
 H        -1.188750         1.182153        -1.085834
 H        -2.604849         2.162775         0.967152
