19
Iteration:   391
 C        -3.879471        -0.175996         1.070983
 C        -2.443992        -0.060268         1.631545
 C        -1.462670        -1.323834         1.631060
 C         0.003412        -1.260184         0.895791
 C         0.084103        -0.021148         0.082153
 O         0.135859         0.032450        -1.127367
 C        -0.191207         1.194504         0.979383
 C        -1.729313         1.169113         1.188271
 O        -2.210181         0.986486         2.495048
 H        -4.622674        -0.363193         1.823225
 H        -4.306676         0.812415         0.710765
 H        -4.030324        -0.793859         0.115662
 H        -1.267057        -1.547445         2.685300
 H        -1.911507        -2.210931         1.173576
 H         0.834301        -1.284396         1.582469
 H         0.120240        -2.086084         0.110631
 H         0.126579         1.206355         1.984837
 H         0.074322         2.133236         0.452604
 H        -2.292402         1.847158         0.495062
