19
Iteration:  3802charge 0 multiplicity 1
 C        -3.973656        -0.396566         1.834610
 C        -2.505312        -0.205236         1.668919
 C        -1.683990        -1.354744         0.920030
 C        -0.173777        -1.103337         0.845742
 C         0.108752         0.129928         0.036810
 O         1.075196         0.323840        -0.714314
 C        -0.932435         1.363789         0.260185
 C        -2.021422         1.099918         1.287227
 O        -1.760950         0.669765         2.607727
 H        -4.326058        -1.336046         2.244122
 H        -4.275746         0.416108         2.525706
 H        -4.388069        -0.138561         0.907665
 H        -1.765459        -2.421969         1.260767
 H        -2.000344        -1.368297        -0.080981
 H         0.368950        -0.987122         1.809274
 H         0.268147        -2.029847         0.348048
 H        -0.386707         2.297758         0.601644
 H        -1.470752         1.595370        -0.652722
 H        -2.719126         1.950151         1.280931
