19
Iteration:   753charge 0 multiplicity 1
 C        -3.625065        -0.266782         2.427325
 C        -2.407804        -0.071033         1.576512
 C        -1.981313        -1.325998         0.907569
 C        -0.718186        -1.346663         0.013261
 C         0.112163         0.107208         0.109611
 O         1.153210         0.320293         0.738998
 C        -0.969942         1.164183        -0.351223
 C        -1.928946         1.154999         0.917197
 O        -1.509670         0.863035         2.224260
 H        -3.280186        -0.726389         3.401571
 H        -4.145847         0.635109         2.682549
 H        -4.181989        -1.130562         1.934788
 H        -1.945527        -2.264701         1.526460
 H        -2.835785        -1.464436         0.286905
 H         0.096134        -2.054151         0.429834
 H        -0.999154        -1.723883        -1.028879
 H        -0.472667         2.276260        -0.558161
 H        -1.564444         0.845547        -1.234233
 H        -2.573968         1.977351         0.755658
