19
Iteration:  3487
 C        -3.979023        -0.499906         1.714167
 C        -2.435917        -0.138580         1.656580
 C        -1.501826        -1.318941         1.464863
 C        -0.496696        -1.269417         0.257001
 C         0.098442         0.099820         0.096297
 O         1.173377         0.340593        -0.384570
 C        -0.877262         1.296686         0.246882
 C        -2.059888         1.206448         1.129827
 O        -1.766640         0.849992         2.537530
 H        -4.019819        -1.536845         1.945244
 H        -4.519708         0.063810         2.573495
 H        -4.686117        -0.385142         0.926190
 H        -0.857806        -1.215850         2.291886
 H        -2.087852        -2.251241         1.411956
 H         0.200927        -2.113272         0.327837
 H        -1.165748        -1.405656        -0.649112
 H        -0.161672         2.156193         0.640907
 H        -1.104804         1.619763        -0.773889
 H        -2.922662         1.797518         0.860764
