19
Iteration:   387
 C        -3.931069        -0.188080         1.074295
 C        -2.459406        -0.074246         1.606102
 C        -1.447700        -1.335973         1.613022
 C         0.040536        -1.271257         0.931231
 C         0.070166        -0.047587         0.084865
 O         0.141199         0.055110        -1.134416
 C        -0.242366         1.195237         0.974080
 C        -1.692599         1.191557         1.192129
 O        -2.182516         0.992127         2.478543
 H        -4.681252        -0.389832         1.868638
 H        -4.361610         0.934404         0.733130
 H        -4.062042        -0.752860         0.196321
 H        -1.201331        -1.574265         2.621711
 H        -2.000688        -2.149758         1.208008
 H         0.826661        -1.278746         1.706826
 H         0.131320        -2.111306         0.171073
 H         0.272692         1.172225         2.029908
 H         0.057206         2.166909         0.491813
 H        -2.264089         1.873250         0.521846
