19
Iteration:   618charge 0 multiplicity 1
 C        -3.916370        -0.344354         1.833511
 C        -2.462909        -0.081546         1.627193
 C        -1.635855        -1.358907         1.467590
 C        -0.656985        -1.287731         0.317699
 C         0.077821         0.052213         0.038176
 O         1.256711         0.044853        -0.319473
 C        -0.680297         1.419649         0.199362
 C        -1.935408         1.264554         1.041147
 O        -1.907648         0.898194         2.458263
 H        -3.961532        -1.235603         2.452359
 H        -4.558665         0.476816         2.399097
 H        -4.321714        -0.765891         0.985700
 H        -1.062194        -1.619319         2.388735
 H        -2.388651        -2.232433         1.397042
 H         0.126543        -2.028504         0.382532
 H        -1.186818        -1.477750        -0.649734
 H         0.047120         2.103529         0.807764
 H        -0.871214         1.872593        -0.828387
 H        -2.735100         2.136003         0.932941
