19
Iteration:  1123
 C        -3.933187        -0.244122         1.428185
 C        -2.450988        -0.120301         1.441559
 C        -1.633444        -1.376217         1.208710
 C        -0.138025        -1.042594         1.000027
 C         0.074808         0.162619         0.113568
 O         0.451473         0.016810        -1.010248
 C        -0.391275         1.412611         0.735081
 C        -1.771570         1.188810         1.250776
 O        -2.000300         0.632717         2.558921
 H        -4.186391        -0.761242         2.334155
 H        -4.355268         0.838278         1.495666
 H        -4.366928        -0.877688         0.671343
 H        -1.753096        -2.118137         1.928523
 H        -1.849304        -1.954069         0.316293
 H         0.419478        -0.861680         1.898065
 H         0.406956        -1.934830         0.536995
 H         0.382203         1.567685         1.579353
 H        -0.307342         2.291643         0.071008
 H        -2.564778         1.922105         1.019858
