19
Iteration:  3884
 C        -3.861874        -0.484949         1.605251
 C        -2.446828        -0.166233         1.517894
 C        -1.572615        -1.338720         1.085266
 C        -0.028488        -1.077121         1.043931
 C         0.091868         0.116417         0.147548
 O         0.491149         0.226167        -1.047732
 C        -0.608812         1.393555         0.714894
 C        -2.004091         1.228997         1.193150
 O        -1.837242         0.670988         2.521141
 H        -4.250038        -0.750273         2.586904
 H        -4.386125         0.492229         1.337303
 H        -4.331970        -1.285052         0.940277
 H        -1.828709        -2.239079         1.620474
 H        -1.924275        -1.523859        -0.018855
 H         0.451701        -0.823102         2.021139
 H         0.547236        -1.843240         0.572926
 H         0.018729         1.632112         1.567902
 H        -0.576365         2.243366        -0.044764
 H        -2.882516         1.958693         0.913207
