19
Iteration:  4123
 C        -3.951053        -0.434296         1.774195
 C        -2.485951        -0.133087         1.546776
 C        -1.705482        -1.371833         0.958621
 C        -0.207855        -1.049182         0.891259
 C         0.130073         0.190558         0.008412
 O         0.891135         0.154961        -0.932627
 C        -0.732344         1.441632         0.426703
 C        -1.901580         1.245506         1.372179
 O        -1.865920         0.568303         2.652865
 H        -4.022524        -1.091943         2.592450
 H        -4.588869         0.493972         1.918448
 H        -4.230292        -1.085678         0.907995
 H        -1.800949        -2.266087         1.738643
 H        -2.223502        -1.663145         0.045425
 H        -0.000767        -0.614359         1.923779
 H         0.493334        -1.912050         0.805473
 H         0.007750         2.154079         0.801459
 H        -1.057527         1.827554        -0.617941
 H        -2.588195         2.189704         1.392575
