19
Iteration:  1388
 C        -3.773575        -0.346088         2.142284
 C        -2.455657        -0.055033         1.560780
 C        -1.693984        -1.382378         1.268342
 C        -0.819862        -1.234254         0.016302
 C         0.086228        -0.008462         0.108968
 O         1.297346         0.162809         0.271808
 C        -0.814036         1.254583         0.095939
 C        -2.084911         1.192697         0.877090
 O        -1.673003         0.960669         2.252174
 H        -3.647652        -1.068888         2.988452
 H        -4.133208         0.500858         2.582233
 H        -4.404627        -0.810973         1.351353
 H        -1.094095        -1.496499         2.133651
 H        -2.438231        -2.153104         1.190793
 H        -0.193789        -2.172132        -0.134462
 H        -1.411490        -1.154724        -0.922106
 H        -0.191396         2.197923         0.526378
 H        -0.861903         1.408572        -1.011679
 H        -2.784945         2.007772         0.870617
