19
Iteration:   186
 C        -3.983396        -0.185255         2.162593
 C        -2.568686        -0.016053         1.577984
 C        -1.950793        -1.269865         1.035979
 C        -0.525486        -1.258401         0.456492
 C         0.155423         0.040259         0.115576
 O         1.402972        -0.039709        -0.105124
 C        -0.747938         1.305035         0.093237
 C        -1.959995         1.225847         0.992971
 O        -1.710881         0.813448         2.338528
 H        -3.834079        -0.647987         3.227191
 H        -4.460159         0.762212         2.268659
 H        -4.692105        -0.860149         1.507367
 H        -1.968876        -2.065460         1.783859
 H        -2.640620        -1.566209         0.274960
 H         0.121081        -1.917638         1.071589
 H        -0.596357        -1.739346        -0.572540
 H        -0.134355         2.227552         0.326926
 H        -1.075908         1.535369        -0.942055
 H        -2.656587         2.071251         0.890867
