19
Iteration:   705charge 0 multiplicity 1
 C        -3.703287        -0.131473         2.220570
 C        -2.396786        -0.124419         1.476475
 C        -1.776903        -1.463074         1.124358
 C        -0.659555        -1.277379         0.054730
 C        -0.005568         0.099587         0.144899
 O         1.147016         0.164435         0.539264
 C        -1.011692         1.354732        -0.089359
 C        -2.127620         1.181183         0.929407
 O        -1.415455         0.752583         2.173156
 H        -3.550745        -0.533269         3.230273
 H        -4.054811         0.933937         2.097529
 H        -4.487228        -0.678758         1.749441
 H        -1.193658        -1.712789         2.051109
 H        -2.508192        -2.347760         0.930951
 H         0.114730        -1.998097         0.144516
 H        -1.049515        -1.377821        -0.910354
 H        -0.519102         2.321130        -0.113353
 H        -1.366293         1.200791        -1.135330
 H        -2.751598         2.129860         1.025298
