19
Iteration:  2789
 C        -3.948902        -0.328376         2.060628
 C        -2.440456        -0.139543         1.579615
 C        -1.686388        -1.383327         1.316305
 C        -0.626885        -1.322761         0.209894
 C         0.044588         0.123054         0.184866
 O         1.209466         0.337792         0.144622
 C        -0.929858         1.358932        -0.024671
 C        -2.046812         1.184408         0.971024
 O        -1.504529         0.737850         2.183519
 H        -3.921516        -1.199834         2.702426
 H        -4.278711         0.509825         2.569004
 H        -4.547895        -0.530197         1.126455
 H        -1.299066        -1.602497         2.339653
 H        -2.343733        -2.263494         1.125730
 H         0.169210        -2.042819         0.345294
 H        -1.154591        -1.515843        -0.736191
 H        -0.256824         2.236003         0.361086
 H        -1.164536         1.536456        -1.091012
 H        -2.702620         2.040631         1.225116
