19
Iteration:   301
 C        -3.912137        -0.133458         1.426238
 C        -2.471949        -0.021108         1.507072
 C        -1.654321        -1.203295         1.152312
 C        -0.115592        -1.105592         1.192958
 C         0.076416        -0.072057         0.129282
 O         0.590164        -0.138031        -1.001070
 C        -0.523221         1.320027         0.540779
 C        -1.823952         1.227890         1.270442
 O        -1.952220         0.686973         2.573742
 H        -4.285748        -1.036347         1.881977
 H        -4.394351         0.853048         1.892893
 H        -4.090922        -0.083361         0.365795
 H        -1.993926        -2.058362         1.722654
 H        -1.910161        -1.429604         0.114212
 H         0.225535        -0.724169         2.148294
 H         0.455158        -2.078577         1.019705
 H         0.158943         1.871372         1.167749
 H        -0.706647         1.867515        -0.408398
 H        -2.439320         2.150618         1.074757
