19
Iteration:   820
 C        -3.836383        -0.160982         2.319945
 C        -2.526528        -0.101254         1.551026
 C        -2.020640        -1.377555         0.887194
 C        -0.527820        -1.197642         0.504974
 C         0.036576         0.163318         0.137397
 O         1.236991         0.373544         0.170426
 C        -0.919401         1.252356        -0.182893
 C        -1.920556         1.121581         0.962428
 O        -1.468954         0.507591         2.257835
 H        -3.862927        -1.099748         2.891304
 H        -4.071294         0.813605         2.857734
 H        -4.598162        -0.261341         1.504597
 H        -2.161593        -2.266524         1.555184
 H        -2.572395        -1.562396        -0.019873
 H        -0.035761        -1.613371         1.421190
 H        -0.096067        -1.892814        -0.328276
 H        -0.335900         2.325221        -0.174432
 H        -1.419035         1.287567        -1.189407
 H        -2.394987         2.053700         1.261499
