19
Iteration:  3086
 C        -3.953764        -0.432421         1.737801
 C        -2.530856        -0.064101         1.399845
 C        -1.742462        -1.312191         1.057481
 C        -0.276496        -1.112556         0.924042
 C         0.129291         0.116424         0.098646
 O         0.940244         0.053122        -0.861454
 C        -0.554285         1.403333         0.481177
 C        -1.958515         1.232937         1.266867
 O        -1.926749         0.715963         2.577481
 H        -3.841253        -0.945671         2.686837
 H        -4.665785         0.511608         1.733854
 H        -4.157893        -1.182558         0.983806
 H        -1.869163        -1.994365         1.892172
 H        -2.089235        -1.779234         0.163638
 H         0.198153        -0.937564         1.887933
 H         0.292962        -1.954645         0.500891
 H         0.046382         2.151256         1.121541
 H        -0.735727         2.043928        -0.391371
 H        -2.611977         2.081583         1.142250
