19
Iteration:  4448charge 0 multiplicity 1
 C        -3.866428        -0.458648         2.062489
 C        -2.437187        -0.117762         1.638288
 C        -1.613839        -1.408083         1.284602
 C        -0.619490        -1.272296         0.071791
 C         0.082526         0.162376         0.100240
 O         1.276420         0.276848        -0.111103
 C        -0.899065         1.363811         0.130622
 C        -2.114468         1.111479         1.060632
 O        -1.678009         0.908429         2.422880
 H        -4.012532        -1.052785         2.918731
 H        -4.562644         0.395881         2.294063
 H        -4.244434        -1.089318         1.246561
 H        -1.114359        -1.740056         2.163042
 H        -2.449863        -2.119760         0.947304
 H         0.133996        -2.151844         0.137935
 H        -1.253962        -1.341346        -0.862489
 H        -0.358160         2.246418         0.689174
 H        -1.110755         1.697586        -0.930549
 H        -2.823794         1.911961         1.015769
