19
Iteration:  2425
 C        -3.974283        -0.443968         1.423625
 C        -2.491427        -0.034137         1.518242
 C        -1.560762        -1.277554         1.573039
 C        -0.262418        -1.266927         0.750446
 C         0.186042         0.113022         0.160076
 O         0.574167         0.098578        -1.035224
 C        -0.324764         1.407458         0.751563
 C        -1.840994         1.180376         1.119400
 O        -2.084374         0.854804         2.510263
 H        -4.005558        -1.526684         1.650365
 H        -4.718079         0.049712         2.199898
 H        -4.234501        -0.206805         0.386120
 H        -1.310962        -1.302018         2.686869
 H        -2.173608        -2.211732         1.284607
 H         0.611798        -1.869373         1.255094
 H        -0.240271        -1.933425        -0.150916
 H         0.251483         1.770092         1.511536
 H        -0.127599         2.063993        -0.015336
 H        -2.543185         2.060159         0.799936
