19
Iteration:  3611
 C        -3.727997        -0.311172         2.390190
 C        -2.380329        -0.183339         1.607185
 C        -1.664356        -1.438125         0.991488
 C        -0.546256        -1.219851        -0.150986
 C         0.007908         0.183195         0.060238
 O         1.093891         0.443157         0.616976
 C        -1.064122         1.239823        -0.148682
 C        -2.065989         1.081963         0.948143
 O        -1.528883         0.744690         2.261616
 H        -3.624858        -0.190124         3.526181
 H        -4.317695         0.530956         2.043534
 H        -4.451105        -1.231463         2.234335
 H        -1.030972        -2.023120         1.680697
 H        -2.533234        -2.153804         0.794153
 H         0.279090        -1.932452        -0.268289
 H        -1.020034        -1.213244        -1.182696
 H        -0.609267         2.222590        -0.118007
 H        -1.496847         1.130680        -1.208900
 H        -2.780838         1.914126         0.879712
