19
Iteration:  2966
 C        -3.894403        -0.315377         1.952215
 C        -2.415629        -0.081945         1.645774
 C        -1.783389        -1.382067         1.175504
 C        -0.497906        -1.261601         0.248109
 C         0.019965         0.105455         0.129524
 O         1.219890         0.332525         0.085250
 C        -1.027507         1.239638        -0.072977
 C        -1.957258         1.211452         1.093502
 O        -1.548943         0.745431         2.457077
 H        -4.173547        -1.038106         2.670916
 H        -4.484234         0.640900         2.298513
 H        -4.281231        -0.587678         0.966481
 H        -1.406642        -1.995484         2.023534
 H        -2.523056        -1.836161         0.568570
 H         0.272645        -1.976982         0.466929
 H        -0.681086        -1.636500        -0.767198
 H        -0.524451         2.157189        -0.210115
 H        -1.407144         1.123073        -1.036385
 H        -2.688423         2.005200         1.087985
