19
Iteration:  1822charge 0 multiplicity 1
 C        -3.901788        -0.547173         1.635974
 C        -2.507474        -0.052797         1.747630
 C        -1.448404        -1.200569         1.633150
 C        -0.800399        -1.269812         0.204679
 C         0.112708        -0.050755        -0.079241
 O         1.220346        -0.035624        -0.577356
 C        -0.437060         1.357281         0.589717
 C        -1.882858         1.223570         1.044170
 O        -2.194452         1.152161         2.505052
 H        -4.147310        -1.372900         2.343199
 H        -4.515663         0.233963         1.861179
 H        -4.280120        -0.845426         0.598517
 H        -0.665966        -1.175832         2.336178
 H        -1.856007        -2.133227         1.873338
 H        -0.210945        -2.161196         0.185485
 H        -1.676786        -1.251797        -0.473334
 H         0.325324         1.599026         1.444598
 H        -0.252204         2.183431        -0.083451
 H        -2.610591         1.832011         0.537395
