19
Iteration:   950charge 0 multiplicity 1
 C        -3.974659        -0.269832         1.592767
 C        -2.461897        -0.143773         1.499688
 C        -1.630621        -1.418825         1.071810
 C        -0.073456        -1.240724         0.956378
 C         0.143218         0.069086         0.099700
 O         0.565082         0.106490        -1.034512
 C        -0.443525         1.422958         0.724666
 C        -1.897538         1.279634         1.209199
 O        -1.989119         0.771268         2.573835
 H        -4.183824        -0.870048         2.464362
 H        -4.466771         0.755750         1.651205
 H        -4.392617        -0.647544         0.667199
 H        -1.801878        -2.130172         1.998814
 H        -1.913955        -1.930985         0.101258
 H         0.245449        -0.904728         1.957224
 H         0.432141        -2.195092         0.624379
 H         0.000340         1.613159         1.762424
 H        -0.276912         2.108245         0.001743
 H        -2.667675         2.054392         1.053443
