19
Iteration:  1512
 C        -3.855233        -0.452081         1.491142
 C        -2.419611        -0.035043         1.631483
 C        -1.446115        -1.224795         1.757460
 C        -0.593432        -1.293805         0.498257
 C         0.098636         0.014138         0.041811
 O         0.867283         0.043694        -0.895919
 C        -0.353152         1.237319         0.758981
 C        -1.853698         1.225562         1.048730
 O        -2.221220         1.066957         2.410802
 H        -4.262425        -0.948011         2.347900
 H        -4.391856         0.520966         1.301500
 H        -3.915984        -1.099242         0.657653
 H        -0.914870        -1.225914         2.728353
 H        -2.100383        -2.070189         1.736445
 H         0.070487        -2.175293         0.627255
 H        -1.232439        -1.380080        -0.395300
 H         0.070182         1.078539         1.849034
 H         0.101614         2.249668         0.396866
 H        -2.560285         1.913407         0.542624
