19
Iteration:  2278
 C        -4.022394        -0.232985         1.704822
 C        -2.518953        -0.125514         1.396285
 C        -1.664809        -1.207815         0.957719
 C        -0.138276        -0.935183         1.149374
 C         0.128807         0.120871         0.124617
 O         0.703305        -0.152847        -0.931359
 C        -0.507689         1.428013         0.553958
 C        -1.869098         1.230058         1.238333
 O        -1.903019         0.512882         2.529656
 H        -4.152756        -0.724688         2.707037
 H        -4.477366         0.708137         1.645251
 H        -4.516894        -1.003304         1.031462
 H        -1.901156        -2.145062         1.455458
 H        -1.801337        -1.288087        -0.114302
 H         0.019350        -0.648038         2.188800
 H         0.476356        -1.817851         0.867788
 H         0.098289         1.993850         1.079884
 H        -0.814195         2.053132        -0.336180
 H        -2.490870         2.044432         1.167509
