19
Iteration:  1758charge 0 multiplicity 1
 C        -3.881588        -0.340902         1.195765
 C        -2.443341        -0.028129         1.618983
 C        -1.391801        -1.155864         1.830247
 C        -0.493180        -1.405039         0.590614
 C        -0.042653        -0.074832        -0.117678
 O         0.820116         0.129751        -0.951017
 C        -0.376471         1.155869         0.774169
 C        -1.826049         1.194002         1.187549
 O        -2.242189         1.089138         2.611768
 H        -4.425766        -0.461040         2.152034
 H        -4.252925         0.442698         0.727303
 H        -3.895285        -1.254885         0.532061
 H        -0.817724        -0.821490         2.726674
 H        -1.679441        -2.237279         2.104097
 H         0.465038        -1.814559         0.840851
 H        -0.864507        -2.206380        -0.110446
 H         0.381556         1.087752         1.564601
 H        -0.207844         1.985159         0.120076
 H        -2.370505         1.929485         0.585797
