19
Iteration:  1112charge 0 multiplicity 1
 C        -4.028226        -0.316471         1.378580
 C        -2.496417        -0.113950         1.367705
 C        -1.592983        -1.399218         1.245681
 C        -0.046274        -1.036043         1.058473
 C         0.061711         0.128619         0.105209
 O         0.341509         0.006690        -1.098538
 C        -0.242544         1.436606         0.816708
 C        -1.802914         1.221071         1.277522
 O        -1.958757         0.662936         2.576978
 H        -4.215017        -0.950007         2.218535
 H        -4.704842         0.627310         1.461436
 H        -4.302806        -0.752071         0.423105
 H        -1.752286        -2.008363         2.073310
 H        -1.997791        -1.794105         0.319115
 H         0.247491        -0.732006         2.035901
 H         0.522323        -1.934602         0.656712
 H         0.381984         1.595694         1.763337
 H        -0.142568         2.256070         0.068782
 H        -2.269259         2.202353         1.088220
