19
Iteration:  3432
 C        -3.955828        -0.506114         1.647188
 C        -2.438850        -0.199897         1.687709
 C        -1.401236        -1.283891         1.536965
 C        -0.454345        -1.198169         0.295436
 C         0.142601         0.147444         0.051184
 O         1.096080         0.222462        -0.745972
 C        -0.676557         1.318261         0.545118
 C        -2.038370         1.211242         1.161564
 O        -2.085371         0.876503         2.559156
 H        -4.276467        -0.817449         2.619089
 H        -4.572616         0.411005         1.337180
 H        -4.052447        -1.326485         0.972125
 H        -0.758475        -1.280097         2.396041
 H        -1.815944        -2.310834         1.556483
 H         0.228666        -2.034317         0.425738
 H        -1.258832        -1.565460        -0.415077
 H        -0.129762         1.979799         1.326723
 H        -0.724181         1.915966        -0.350749
 H        -2.797860         1.867726         0.796730
