19
Iteration:  4377
 C        -3.846952        -0.348231         2.201461
 C        -2.443832        -0.138871         1.697256
 C        -1.858046        -1.412329         1.064669
 C        -0.566001        -1.207424         0.144903
 C         0.073035         0.161531         0.160173
 O         1.241496         0.466258         0.119092
 C        -0.969326         1.182539        -0.085639
 C        -2.002974         1.066950         1.032663
 O        -1.485396         0.768919         2.371955
 H        -4.108705        -0.231425         3.329170
 H        -4.592016         0.323798         1.761437
 H        -4.206289        -1.356544         1.974406
 H        -1.688709        -2.320719         1.777526
 H        -2.582740        -1.657918         0.325638
 H         0.263480        -1.858567         0.257909
 H        -1.009145        -1.309141        -0.889795
 H        -0.595764         2.147764        -0.078933
 H        -1.438448         1.080380        -1.075623
 H        -2.599746         2.061131         0.979164
