19
Iteration:  2851
 C        -3.684653        -0.260030         2.274072
 C        -2.381155        -0.088921         1.576199
 C        -1.712188        -1.427414         0.979301
 C        -0.509711        -1.319961        -0.116303
 C         0.026070         0.051529         0.099816
 O         1.107134         0.313541         0.655728
 C        -1.097094         1.140041        -0.148722
 C        -2.108995         1.190340         0.979437
 O        -1.518510         0.959817         2.231290
 H        -3.599982        -0.790648         3.307152
 H        -4.157414         0.623660         2.653712
 H        -4.603520        -0.712959         1.869023
 H        -1.260590        -1.888501         1.822707
 H        -2.583739        -1.948184         0.528153
 H         0.260727        -2.171202         0.126383
 H        -0.823328        -1.725282        -1.085308
 H        -0.655918         2.177461        -0.192484
 H        -1.433423         0.845698        -1.113545
 H        -2.786635         2.084074         0.971976
