19
Iteration:  3966charge 0 multiplicity 1
 C        -3.860685        -0.433669         1.172201
 C        -2.429756        -0.201500         1.589294
 C        -1.419431        -1.419469         1.482829
 C        -0.063236        -1.200787         0.933693
 C         0.002957         0.121406         0.046299
 O         0.265010         0.304743        -1.111596
 C        -0.471795         1.395878         0.730770
 C        -1.884815         1.151691         1.310898
 O        -1.931683         0.819418         2.662402
 H        -4.115494        -1.546063         1.334077
 H        -4.631708         0.172454         1.647224
 H        -3.826008        -0.138953         0.119239
 H        -1.482678        -2.030190         2.478473
 H        -1.971256        -2.091461         0.749294
 H         0.692587        -1.044313         1.718700
 H         0.388182        -1.892531         0.203043
 H         0.274872         1.841316         1.452113
 H        -0.529751         2.112101        -0.011513
 H        -2.495852         1.955160         1.077201
