19
Iteration:  1474charge 0 multiplicity 1
 C        -3.964477        -0.397893         1.547926
 C        -2.446994        -0.108836         1.661849
 C        -1.488990        -1.239627         1.632026
 C        -0.671966        -1.346996         0.296411
 C         0.094535        -0.019593         0.016537
 O         1.142493        -0.000117        -0.612961
 C        -0.558556         1.371470         0.481596
 C        -1.895870         1.263897         1.187466
 O        -2.054571         1.061888         2.559686
 H        -4.409494        -1.008343         2.402343
 H        -4.557498         0.482249         1.268487
 H        -4.101214        -1.009021         0.588957
 H        -0.682219        -1.169924         2.367912
 H        -1.920986        -2.239866         1.933105
 H         0.043189        -2.206733         0.331241
 H        -1.334996        -1.589158        -0.569180
 H         0.116667         1.931205         1.169697
 H        -0.616397         1.922843        -0.422369
 H        -2.613024         1.917263         0.682044
