19
Iteration:   260charge 0 multiplicity 1
 C        -4.067026        -0.045366         1.662127
 C        -2.555795        -0.099387         1.505218
 C        -1.823089        -1.293905         1.058144
 C        -0.272596        -0.984895         1.086134
 C         0.145861         0.057157         0.091318
 O         0.973202        -0.202910        -0.742325
 C        -0.656747         1.419211         0.350446
 C        -1.831430         1.231020         1.231294
 O        -1.722499         0.539449         2.495061
 H        -4.467592        -0.882896         2.154864
 H        -4.361138         0.888054         2.153880
 H        -4.555796        -0.131656         0.673774
 H        -2.061511        -2.188219         1.750712
 H        -2.214091        -1.673175         0.000423
 H         0.076439        -0.614781         2.009522
 H         0.131010        -2.038504         0.868338
 H        -0.038509         2.262308         0.573927
 H        -1.126494         1.733450        -0.646615
 H        -2.510923         2.114760         1.375767
