19
Iteration:  4186charge 0 multiplicity 1
 C        -3.900033        -0.326169         2.099813
 C        -2.515384        -0.164970         1.451092
 C        -1.802199        -1.398934         1.044847
 C        -0.337842        -1.215877         0.588232
 C         0.159624         0.176143         0.050272
 O         1.184281         0.435650        -0.513166
 C        -0.860538         1.299212         0.255150
 C        -1.986018         1.128835         1.210129
 O        -1.775833         0.631890         2.438735
 H        -4.066382        -1.404961         2.317560
 H        -3.905529         0.112536         3.117171
 H        -4.832963        -0.058739         1.502372
 H        -1.888951        -2.037780         1.956175
 H        -2.408093        -1.898323         0.273555
 H         0.193613        -1.176927         1.570229
 H        -0.124369        -2.012078        -0.094221
 H        -0.481139         2.348648         0.443485
 H        -1.259105         1.458848        -0.713151
 H        -2.696023         1.895891         1.195775
