19
Iteration:  2484charge 0 multiplicity 1
 C        -3.810603        -0.303639         1.410223
 C        -2.351763        -0.173625         1.686242
 C        -1.439814        -1.349432         1.638121
 C        -0.345214        -1.363457         0.505103
 C         0.109204         0.041894         0.026524
 O         0.832256         0.184928        -1.001512
 C        -0.536901         1.277132         0.767857
 C        -1.998440         1.190803         1.158543
 O        -2.214101         1.045278         2.606619
 H        -4.523886        -0.512045         2.240446
 H        -4.198738         0.506719         0.966406
 H        -4.170604        -1.102625         0.641084
 H        -1.099826        -1.722726         2.572537
 H        -2.066204        -2.148726         1.304272
 H         0.500937        -1.759196         1.000800
 H        -0.729909        -1.935437        -0.343888
 H         0.111860         1.459112         1.670910
 H        -0.398543         2.094496        -0.013055
 H        -2.702829         1.893267         0.740700
