19
Iteration:  2098
 C        -3.874307        -0.105277         2.339484
 C        -2.580795        -0.057623         1.480166
 C        -1.944541        -1.370696         0.828522
 C        -0.418831        -1.352107         0.452101
 C         0.082463         0.071638         0.099012
 O         1.281319         0.384098         0.199617
 C        -0.960542         1.205404        -0.179946
 C        -1.982733         1.226814         1.058046
 O        -1.534521         0.557027         2.294575
 H        -3.581872        -0.437133         3.391958
 H        -4.446529         0.961734         2.267004
 H        -4.531798        -0.857103         1.826899
 H        -2.053934        -2.096027         1.654899
 H        -2.531654        -1.634474        -0.084847
 H         0.188011        -1.579402         1.355262
 H        -0.170580        -2.075965        -0.335638
 H        -0.430505         2.157226        -0.267099
 H        -1.662287         1.033430        -1.052111
 H        -2.412475         2.332549         1.200255
