19
Iteration:  4925charge 0 multiplicity 1
 C        -3.720484        -0.492165         1.358517
 C        -2.296562        -0.174489         1.528983
 C        -1.258879        -1.221193         1.806475
 C        -0.531755        -1.280446         0.522475
 C        -0.076423         0.112991        -0.012923
 O         0.616005         0.216404        -0.993846
 C        -0.416403         1.300609         0.852222
 C        -1.877533         1.177263         1.130755
 O        -2.217228         0.924065         2.539096
 H        -4.110939        -0.307001         2.316009
 H        -4.284898         0.090280         0.552449
 H        -4.043608        -1.502973         1.235639
 H        -0.598707        -0.880637         2.673299
 H        -1.840687        -2.149336         2.039429
 H         0.402689        -1.839806         0.551649
 H        -1.084520        -1.852242        -0.233843
 H         0.178432         1.398728         1.817389
 H        -0.202496         2.162240         0.206064
 H        -2.540231         1.851915         0.645064
