19
Iteration:  3850
 C        -3.923517        -0.561358         1.803014
 C        -2.446994        -0.168261         1.422422
 C        -1.703108        -1.401282         0.953129
 C        -0.214202        -0.968912         0.998923
 C         0.125521         0.307374         0.107128
 O         0.744285         0.074605        -0.893128
 C        -0.603881         1.588687         0.525666
 C        -1.903703         1.223209         1.296499
 O        -1.870427         0.541738         2.497166
 H        -3.817632        -0.873474         2.846337
 H        -4.472846         0.368946         1.865358
 H        -4.506984        -1.221684         1.081218
 H        -1.949668        -2.227505         1.612998
 H        -1.900290        -1.563627        -0.133940
 H         0.021458        -0.887903         2.099116
 H         0.476022        -1.675870         0.570209
 H         0.098335         2.358096         0.912485
 H        -0.962307         1.939681        -0.439646
 H        -2.791330         1.961580         1.405838
