19
Iteration:  4735
 C        -3.766494        -0.574974         1.354052
 C        -2.357441        -0.175851         1.741627
 C        -1.356893        -1.216184         1.901485
 C        -0.597730        -1.157578         0.470691
 C        -0.005684         0.094726        -0.078862
 O         0.877627         0.058528        -0.957242
 C        -0.505569         1.409346         0.656911
 C        -1.894018         1.079060         1.157129
 O        -2.230589         1.051362         2.554762
 H        -3.828630        -0.578864         0.235539
 H        -3.959136        -1.464373         1.857506
 H        -4.452790         0.109876         1.814232
 H        -0.648983        -0.851327         2.692149
 H        -1.692452        -2.240493         1.865102
 H         0.231556        -1.815567         0.526343
 H        -1.304680        -1.607480        -0.282398
 H         0.265902         1.463132         1.415175
 H        -0.328663         2.389988         0.048348
 H        -2.704002         1.622963         0.604471
