19
Iteration:  2731
 C        -4.039780        -0.384406         2.000866
 C        -2.549388        -0.067488         1.679313
 C        -1.726516        -1.339508         1.250703
 C        -0.423451        -1.295905         0.297776
 C         0.239746         0.057489         0.039002
 O         1.341190         0.270723        -0.387211
 C        -0.700260         1.202677         0.297183
 C        -2.065636         1.170839         1.078888
 O        -1.935734         0.980129         2.466628
 H        -4.042769        -0.966635         3.019355
 H        -4.930732         0.341406         2.091529
 H        -4.342844        -1.206692         1.322439
 H        -1.393189        -1.742760         2.200547
 H        -2.454616        -2.012460         0.680065
 H         0.485182        -2.048120         0.476178
 H        -0.766011        -1.690758        -0.662948
 H         0.078606         2.071047         0.605468
 H        -0.984961         1.408019        -0.721075
 H        -2.797304         2.005816         0.780305
