19
Iteration:  1852
 C        -3.895548        -0.382658         1.783212
 C        -2.446385        -0.061941         1.576358
 C        -1.401983        -1.131730         1.473411
 C        -0.702017        -1.302760         0.099714
 C         0.056634        -0.080895        -0.001968
 O         1.228665         0.001037        -0.320497
 C        -0.652471         1.218551         0.492971
 C        -2.049319         1.211708         1.031111
 O        -2.039683         1.039142         2.459389
 H        -4.044373        -1.002253         2.677776
 H        -4.277161         0.696050         2.121311
 H        -4.496053        -0.712958         0.888084
 H        -0.617012        -0.818760         2.193333
 H        -1.507065        -2.140483         1.923501
 H        -0.054563        -2.191848        -0.048329
 H        -1.402039        -1.299421        -0.702123
 H        -0.183119         1.496756         1.487832
 H        -0.461637         2.022377        -0.186447
 H        -2.745202         1.945159         0.744022
