19
Iteration:  3320
 C        -3.712743        -0.556456         1.200676
 C        -2.326106        -0.101406         1.611157
 C        -1.262098        -1.168355         1.802073
 C        -0.533872        -1.281444         0.431984
 C        -0.026201         0.068972         0.017348
 O         0.697100         0.173475        -0.981899
 C        -0.467841         1.263818         0.839461
 C        -1.881012         1.217364         1.249147
 O        -2.287184         0.963883         2.614189
 H        -4.212632        -1.319461         1.885161
 H        -4.382955         0.209801         1.023818
 H        -3.632267        -1.063372         0.203276
 H        -0.501045        -0.599677         2.417399
 H        -1.579492        -2.093709         2.202776
 H         0.314555        -2.012115         0.581284
 H        -1.199635        -1.629781        -0.441285
 H         0.086587         1.276895         1.869821
 H        -0.051887         2.125412         0.220191
 H        -2.763660         1.889145         0.872061
