19
Iteration:  2283charge 0 multiplicity 1
 C        -4.053663        -0.246777         1.703088
 C        -2.536690        -0.135105         1.446256
 C        -1.665346        -1.226019         0.920427
 C        -0.124849        -0.926742         1.179997
 C         0.179912         0.099442         0.149427
 O         0.649378        -0.135280        -0.943155
 C        -0.496409         1.433014         0.532642
 C        -1.864032         1.198775         1.211299
 O        -1.865641         0.523456         2.524877
 H        -4.358544        -0.612692         2.684912
 H        -4.704527         0.719980         1.558221
 H        -4.555247        -0.873966         0.986312
 H        -1.788037        -2.236106         1.411060
 H        -1.670884        -1.267800        -0.208961
 H         0.105402        -0.640763         2.237370
 H         0.428539        -1.830311         0.943640
 H         0.134957         2.211405         1.285598
 H        -0.729821         2.057606        -0.311030
 H        -2.533121         2.161956         1.153846
