19
Iteration:  1616charge 0 multiplicity 1
 C        -3.637520        -0.329229         0.771512
 C        -2.347429        -0.007373         1.476563
 C        -1.437868        -1.171632         1.883155
 C        -0.257594        -1.401762         0.894579
 C         0.013997        -0.032562         0.099678
 O         0.071748         0.045469        -1.141756
 C        -0.227381         1.229139         0.878309
 C        -1.673722         1.292844         1.322842
 O        -2.198847         0.969468         2.624063
 H        -4.341292        -0.861712         1.538913
 H        -4.126923         0.561955         0.501391
 H        -3.482773        -0.849182        -0.262456
 H        -1.144167        -0.892099         2.929575
 H        -2.039406        -2.201392         2.027894
 H         0.531167        -1.880823         1.453356
 H        -0.484520        -2.210137         0.166259
 H         0.384309         1.339224         1.719545
 H        -0.120407         2.011710         0.212512
 H        -2.228575         2.077132         0.845430
