19
Iteration:  4673
 C        -3.928989        -0.602539         1.623438
 C        -2.482849        -0.097709         1.665455
 C        -1.381214        -1.155489         1.792783
 C        -0.567904        -1.248381         0.375957
 C         0.065305         0.067640        -0.048140
 O         1.045965         0.134116        -0.821956
 C        -0.472029         1.397660         0.529949
 C        -1.922268         1.197267         1.045920
 O        -2.187284         0.911847         2.526787
 H        -4.414144        -0.688351         0.617374
 H        -4.028831        -1.680692         1.904861
 H        -4.577254        -0.063275         2.387300
 H        -0.783379        -0.830784         2.697480
 H        -1.728053        -2.089011         2.199600
 H         0.298219        -1.944913         0.495695
 H        -1.300936        -1.636735        -0.396628
 H         0.192806         1.650495         1.366216
 H        -0.375669         2.133079        -0.337163
 H        -2.608017         2.002331         0.732146
