19
Iteration:  4736charge 0 multiplicity 1
 C        -3.765232        -0.578514         1.356572
 C        -2.362566        -0.171968         1.735536
 C        -1.365150        -1.215348         1.907098
 C        -0.592433        -1.156381         0.467097
 C        -0.009185         0.081681        -0.076608
 O         0.870722         0.065518        -0.956230
 C        -0.495387         1.408443         0.657203
 C        -1.887629         1.077048         1.166761
 O        -2.231901         1.047011         2.544944
 H        -3.809235        -0.610444         0.235229
 H        -3.970478        -1.444245         1.879029
 H        -4.457925         0.110623         1.822278
 H        -0.650963        -0.832729         2.716273
 H        -1.667408        -2.232877         1.872035
 H         0.243490        -1.798700         0.527895
 H        -1.319880        -1.564259        -0.308993
 H         0.270984         1.485347         1.397814
 H        -0.321077         2.408667         0.045927
 H        -2.683411         1.626468         0.602160
