19
Iteration:  4119charge 0 multiplicity 1
 C        -3.985376        -0.427855         1.760640
 C        -2.526885        -0.101898         1.527846
 C        -1.655936        -1.386089         0.980229
 C        -0.196309        -1.055442         0.938370
 C         0.143550         0.212182         0.044221
 O         0.862639         0.171496        -0.977003
 C        -0.723567         1.434965         0.405603
 C        -1.867879         1.252433         1.373100
 O        -1.872241         0.535057         2.655938
 H        -4.066626        -1.096416         2.704047
 H        -4.590894         0.426180         1.878534
 H        -4.211774        -1.145469         0.933858
 H        -1.810451        -2.220469         1.661261
 H        -2.222797        -1.592543         0.053765
 H        -0.051219        -0.636841         1.956297
 H         0.376057        -1.965490         0.841645
 H         0.145079         2.089518         0.685688
 H        -1.096985         1.868206        -0.460104
 H        -2.427280         2.105915         1.290911
