19
Iteration:   321charge 0 multiplicity 1
 C        -3.978508        -0.288797         1.275552
 C        -2.424557        -0.022164         1.513529
 C        -1.704630        -1.367710         1.197324
 C        -0.099121        -1.143966         1.100420
 C         0.109887        -0.011484         0.172429
 O         0.417367        -0.149630        -1.027436
 C        -0.362683         1.381283         0.680967
 C        -1.823869         1.304778         1.234013
 O        -1.911094         0.909631         2.620875
 H        -4.280428        -1.115270         1.979383
 H        -4.688401         0.599766         1.616928
 H        -4.212978        -0.409327         0.246659
 H        -1.773437        -2.108967         1.931636
 H        -1.959093        -1.737790         0.278081
 H         0.364509        -1.022682         2.124094
 H         0.270965        -2.069457         0.671345
 H         0.318975         1.620874         1.576986
 H        -0.176186         1.979921        -0.187288
 H        -2.438764         2.156998         0.946603
