19
Iteration:    14charge 0 multiplicity 1
 C        -3.876202        -0.082938         2.143735
 C        -2.528502        -0.070053         1.547645
 C        -1.795575        -1.455788         1.258205
 C        -0.774261        -1.266930         0.037617
 C         0.105464        -0.021589         0.119642
 O         1.370462         0.016848         0.303525
 C        -0.791277         1.179514         0.028666
 C        -1.955041         1.186069         0.916680
 O        -1.650494         1.042244         2.262903
 H        -3.897223        -0.943477         2.859955
 H        -4.189672         0.735357         2.652362
 H        -4.554746        -0.249802         1.337346
 H        -1.210989        -1.736974         2.233061
 H        -2.517240        -2.336307         1.015007
 H        -0.267725        -2.307450        -0.251789
 H        -1.381277        -0.976278        -0.802434
 H        -0.199045         2.137987         0.310970
 H        -1.192238         1.360891        -0.970077
 H        -2.558917         2.034199         0.725793
