19
Iteration:  3565
 C        -3.695068        -0.520611         2.209142
 C        -2.405698        -0.119705         1.550358
 C        -1.630400        -1.339009         1.166182
 C        -0.653979        -1.210505         0.023885
 C         0.017648         0.120127         0.210590
 O         1.195331         0.337931         0.292866
 C        -0.983946         1.329537         0.022868
 C        -2.201721         1.173384         0.925427
 O        -1.560681         0.848323         2.206782
 H        -3.571244        -1.240675         3.075123
 H        -4.426318         0.184096         2.650824
 H        -4.295369        -1.087622         1.493369
 H        -1.154841        -1.777676         2.030353
 H        -2.330786        -2.194396         0.876167
 H         0.090397        -2.017625         0.110027
 H        -1.167699        -1.390127        -0.884810
 H        -0.350040         2.261209         0.158989
 H        -1.319428         1.330623        -1.045668
 H        -2.830988         2.049704         1.035399
