19
Iteration:  2790
 C        -3.947813        -0.325029         2.061410
 C        -2.443138        -0.143526         1.579727
 C        -1.689955        -1.385471         1.314588
 C        -0.622620        -1.331414         0.205413
 C         0.037307         0.120265         0.179164
 O         1.210054         0.346945         0.156028
 C        -0.929920         1.361550        -0.030585
 C        -2.037438         1.184090         0.974677
 O        -1.498144         0.736967         2.180558
 H        -3.922963        -1.180513         2.669433
 H        -4.303434         0.514880         2.582048
 H        -4.530562        -0.540389         1.151233
 H        -1.303724        -1.603709         2.347180
 H        -2.341273        -2.254047         1.157438
 H         0.120757        -2.048789         0.366959
 H        -1.183563        -1.472236        -0.731586
 H        -0.296205         2.222126         0.336600
 H        -1.161290         1.547120        -1.126162
 H        -2.702242         1.994572         1.238439
