19
Iteration:  4254charge 0 multiplicity 1
 C        -3.741596        -0.310087         2.168084
 C        -2.412464        -0.119868         1.565217
 C        -1.901272        -1.315435         0.812671
 C        -0.402131        -1.359420         0.539286
 C        -0.018875         0.125403         0.203734
 O         1.105121         0.571317        -0.059967
 C        -1.073933         1.227983        -0.055408
 C        -1.987242         1.204062         1.111597
 O        -1.455204         0.567149         2.384500
 H        -3.835145        -1.209086         2.743602
 H        -3.998756         0.509873         2.937413
 H        -4.554911        -0.328184         1.381079
 H        -2.149765        -2.340518         1.287317
 H        -2.360212        -1.364932        -0.150951
 H         0.043844        -1.639744         1.537580
 H        -0.058733        -2.025505        -0.275818
 H        -0.504694         2.068647        -0.387502
 H        -1.681808         0.921110        -0.907202
 H        -2.684970         2.053011         1.293054
