19
Iteration:  3773
 C        -3.873038        -0.403279         1.899718
 C        -2.490712        -0.146363         1.552124
 C        -1.756033        -1.455102         1.094145
 C        -0.323337        -1.127980         0.644039
 C         0.080795         0.200878         0.147622
 O         1.097802         0.395313        -0.480065
 C        -0.924128         1.363867         0.206739
 C        -2.000225         1.195533         1.166009
 O        -1.694633         0.589191         2.480539
 H        -4.102515        -1.465886         2.171264
 H        -3.973922         0.216075         2.736116
 H        -4.557406        -0.003704         1.089003
 H        -1.635606        -2.199566         1.855477
 H        -2.331291        -2.077554         0.324182
 H         0.431210        -1.338093         1.429208
 H        -0.040206        -1.819509        -0.150515
 H        -0.483843         2.378812         0.198912
 H        -1.451426         1.252900        -0.754074
 H        -2.712413         2.060771         1.350976
