19
Iteration:   195
 C        -3.933132        -0.167121         2.090659
 C        -2.548707        -0.011945         1.626503
 C        -1.947389        -1.234407         0.967476
 C        -0.491739        -1.291590         0.538496
 C         0.214699        -0.016850         0.155233
 O         1.351390        -0.034419        -0.219062
 C        -0.752553         1.294008         0.113829
 C        -1.952892         1.205447         0.994374
 O        -1.784187         0.861487         2.404150
 H        -3.921420        -0.723390         3.022116
 H        -4.426602         0.779512         2.355736
 H        -4.609640        -0.876899         1.506191
 H        -2.080173        -2.070835         1.745632
 H        -2.669756        -1.572927         0.130091
 H         0.111256        -1.858023         1.186485
 H        -0.292986        -1.774635        -0.518576
 H        -0.178563         2.125196         0.523208
 H        -1.253818         1.596040        -0.891392
 H        -2.649569         2.091987         0.927762
