19
Iteration:  1454
 C        -3.929316        -0.314335         1.588656
 C        -2.506433        -0.017400         1.599175
 C        -1.431921        -1.110904         1.636883
 C        -0.690104        -1.288496         0.256142
 C         0.078867        -0.033222         0.008485
 O         1.209389         0.079187        -0.406989
 C        -0.659176         1.168624         0.323353
 C        -1.965116         1.212823         1.079629
 O        -1.951533         0.876919         2.593376
 H        -4.144422        -0.948836         2.514397
 H        -4.564461         0.430575         1.664593
 H        -4.274454        -0.894780         0.680880
 H        -0.727062        -0.965484         2.417019
 H        -1.936783        -2.040523         1.836296
 H        -0.277349        -2.360656         0.150702
 H        -1.437680        -1.320108        -0.565951
 H         0.096975         1.954807         0.864767
 H        -0.986518         1.593544        -0.633286
 H        -2.485423         2.131182         0.968620
