19
Iteration:  4194
 C        -3.869445        -0.327444         2.125930
 C        -2.603457        -0.161034         1.514804
 C        -1.785649        -1.399424         1.025593
 C        -0.321365        -1.156518         0.577277
 C         0.103715         0.178853         0.037109
 O         1.245554         0.396824        -0.442530
 C        -0.903676         1.317761         0.120373
 C        -1.998328         1.153938         1.179578
 O        -1.782036         0.575095         2.495152
 H        -4.022178        -1.466600         2.251141
 H        -3.817760         0.166458         3.049469
 H        -4.670338         0.072842         1.509151
 H        -1.813754        -2.006445         1.861837
 H        -2.467761        -1.879330         0.249587
 H         0.375050        -1.328488         1.404540
 H         0.050983        -1.903147        -0.141380
 H        -0.244130         2.230413         0.344817
 H        -1.496192         1.522423        -0.801336
 H        -2.618641         2.051138         1.240834
