19
Iteration:  4160charge 0 multiplicity 1
 C        -3.974741        -0.382725         1.955016
 C        -2.479189        -0.173549         1.670158
 C        -1.759490        -1.431863         1.010597
 C        -0.222757        -1.189017         0.701940
 C         0.072572         0.166808         0.107694
 O         1.015785         0.317528        -0.655079
 C        -0.781075         1.413933         0.294877
 C        -2.025531         1.152812         1.167496
 O        -1.707300         0.685116         2.466478
 H        -4.189997        -1.445441         2.319573
 H        -4.474741         0.255812         2.669879
 H        -4.488255        -0.313521         1.021736
 H        -1.917165        -2.283970         1.621358
 H        -2.307910        -1.646797         0.031843
 H         0.327276        -1.294228         1.616993
 H         0.109956        -1.859726        -0.118943
 H        -0.242251         2.074979         1.038561
 H        -0.817005         2.077589        -0.599556
 H        -2.742215         1.999485         1.298321
