19
Iteration:   165charge 0 multiplicity 1
 C        -3.912868        -0.101569         2.167811
 C        -2.570311        -0.030036         1.517590
 C        -2.006090        -1.437239         1.084972
 C        -0.664407        -1.308778         0.264144
 C         0.084765         0.040861         0.183791
 O         1.326593         0.129552         0.142404
 C        -0.732001         1.286963        -0.005790
 C        -1.932990         1.252230         0.964465
 O        -1.537949         0.762338         2.262347
 H        -3.781445        -0.537092         3.253265
 H        -4.455370         0.798380         2.276106
 H        -4.613984        -0.889699         1.702948
 H        -1.788171        -1.880508         2.038217
 H        -2.691035        -2.059446         0.620827
 H         0.087685        -1.958139         0.802934
 H        -0.651503        -1.618416        -0.771901
 H        -0.126911         2.220716         0.186306
 H        -1.092584         1.364106        -0.998972
 H        -2.533729         2.142176         1.079762
