19
Iteration:  1075
 C        -3.742723        -0.322983         1.122856
 C        -2.305052        -0.045582         1.441439
 C        -1.533399        -1.298647         1.213452
 C        -0.008070        -1.094017         1.115968
 C        -0.047807         0.058030         0.195152
 O        -0.042535        -0.054706        -1.051340
 C        -0.219950         1.362851         0.862897
 C        -1.735770         1.251197         1.286622
 O        -2.052107         0.765116         2.630242
 H        -3.942999        -1.402017         1.356639
 H        -4.404883         0.314858         1.562981
 H        -3.936645        -0.388800         0.025587
 H        -1.904799        -2.075386         1.922243
 H        -1.761646        -1.771219         0.272022
 H         0.586584        -0.902120         2.043342
 H         0.531021        -1.778861         0.542115
 H         0.217110         1.698003         1.767992
 H        -0.195470         2.254726         0.066953
 H        -2.455133         2.030087         1.090854
