19
Iteration:  3235charge 0 multiplicity 1
 C        -3.924119        -0.409352         1.332357
 C        -2.379795        -0.131992         1.537804
 C        -1.388514        -1.335531         1.524626
 C        -0.013281        -1.217545         0.770432
 C         0.133690         0.088835         0.126079
 O         0.369296         0.119259        -1.073728
 C        -0.381097         1.303113         0.928469
 C        -1.929934         1.243473         1.105967
 O        -2.219353         0.936595         2.499291
 H        -3.938729        -1.561906         1.468780
 H        -4.376113         0.215327         2.188720
 H        -4.360687         0.043706         0.398459
 H        -1.282079        -1.468919         2.606210
 H        -1.935667        -2.280499         1.132834
 H         0.728604        -1.541961         1.500131
 H         0.088458        -1.996464        -0.071433
 H         0.051052         1.448062         1.869586
 H         0.015313         2.102735         0.281744
 H        -2.680406         1.942991         0.668857
