19
Iteration:   907charge 0 multiplicity 1
 C        -4.057006        -0.309647         1.829743
 C        -2.569386        -0.113308         1.521749
 C        -1.792294        -1.359152         1.003786
 C        -0.328861        -1.090857         0.867909
 C         0.138045         0.103628         0.017534
 O         1.071338         0.057825        -0.785374
 C        -0.638021         1.463702         0.397946
 C        -1.971464         1.289799         1.227676
 O        -1.725833         0.553047         2.569326
 H        -4.179666        -1.156755         2.476075
 H        -4.610535         0.613229         2.118459
 H        -4.601729        -0.514141         0.917726
 H        -1.976961        -2.134150         1.824316
 H        -2.381351        -1.698900         0.122820
 H        -0.075613        -0.837592         1.917097
 H         0.318034        -1.905761         0.442768
 H         0.128076         2.047404         1.115899
 H        -0.800686         2.059867        -0.441121
 H        -2.568255         2.212432         1.335150
