19
Iteration:  4667charge 0 multiplicity 1
 C        -3.949636        -0.594235         1.618254
 C        -2.484402        -0.135258         1.690917
 C        -1.351352        -1.196327         1.729730
 C        -0.555370        -1.212525         0.423059
 C         0.113465         0.103466        -0.062192
 O         1.050237         0.084716        -0.815656
 C        -0.480766         1.377552         0.502881
 C        -1.991504         1.206011         1.100887
 O        -2.173405         0.960864         2.509423
 H        -4.409339        -0.605239         0.653148
 H        -3.927893        -1.600822         2.105010
 H        -4.566012        -0.093380         2.345577
 H        -0.762236        -0.834663         2.549381
 H        -1.737847        -2.271132         1.877643
 H         0.239082        -1.982951         0.492746
 H        -1.346448        -1.385867        -0.286216
 H         0.074361         1.690602         1.446924
 H        -0.344039         2.197225        -0.168940
 H        -2.718402         1.860798         0.610651
