19
Iteration:  2095
 C        -3.878688        -0.097093         2.352656
 C        -2.585812        -0.056271         1.485286
 C        -1.960982        -1.386314         0.813533
 C        -0.436517        -1.316642         0.458101
 C         0.075824         0.099396         0.129828
 O         1.279749         0.388291         0.208124
 C        -0.972271         1.180688        -0.186337
 C        -1.961664         1.206981         1.050625
 O        -1.508070         0.551258         2.257080
 H        -3.677766        -0.431675         3.387230
 H        -4.411936         0.830056         2.283913
 H        -4.524705        -0.874414         1.874824
 H        -2.077033        -2.063239         1.680449
 H        -2.555008        -1.584132        -0.082994
 H         0.196502        -1.617683         1.321859
 H        -0.179326        -2.053421        -0.284734
 H        -0.420023         2.212290        -0.265544
 H        -1.560319         0.982139        -1.008263
 H        -2.332461         2.279891         1.196516
