19
Iteration:  3263charge 0 multiplicity 1
 C        -3.924969        -0.495235         1.272980
 C        -2.406087        -0.175062         1.489217
 C        -1.449782        -1.263829         1.741644
 C        -0.248883        -1.225468         0.765536
 C        -0.000898         0.094728         0.017583
 O         0.526088         0.250752        -1.103676
 C        -0.329041         1.327579         0.880639
 C        -1.797286         1.192682         1.151705
 O        -2.151773         0.889989         2.505540
 H        -4.108799        -1.571809         1.428874
 H        -4.474963         0.027997         2.038429
 H        -4.351131        -0.219818         0.301780
 H        -1.158014        -1.225566         2.840172
 H        -1.891538        -2.245935         1.708235
 H         0.645458        -1.503573         1.422912
 H        -0.292648        -2.016348         0.014301
 H         0.396753         1.391925         1.807738
 H        -0.090411         2.156722         0.167231
 H        -2.662727         1.782120         0.767021
