19
Iteration:  4106
 C        -4.058287        -0.440078         1.705697
 C        -2.534107        -0.108813         1.492771
 C        -1.678268        -1.279210         1.032346
 C        -0.104151        -0.994301         1.096817
 C         0.133062         0.140192         0.022713
 O         0.722998         0.222074        -1.018785
 C        -0.596017         1.391729         0.405219
 C        -1.816402         1.199924         1.361536
 O        -1.861741         0.477937         2.629118
 H        -4.126399        -0.803625         2.786403
 H        -4.727295         0.405658         1.618565
 H        -4.521951        -1.136196         1.026358
 H        -1.896882        -2.121483         1.586388
 H        -1.745863        -1.590190        -0.041255
 H         0.255319        -0.827219         2.092611
 H         0.456278        -1.832147         0.666046
 H         0.021936         2.222710         0.821452
 H        -1.071750         1.793683        -0.474154
 H        -2.435860         2.049904         1.514648
