19
Iteration:  2900
 C        -3.647012        -0.368402         2.456474
 C        -2.483527        -0.153578         1.462975
 C        -1.875795        -1.454621         1.057373
 C        -0.689669        -1.163759         0.121902
 C         0.061994         0.188192         0.299356
 O         1.233889         0.285700         0.570277
 C        -0.928251         1.351170        -0.188550
 C        -2.093992         1.136888         0.813009
 O        -1.480390         0.773157         1.989554
 H        -3.404683        -0.849479         3.349997
 H        -4.289501         0.561585         2.673835
 H        -4.437236        -0.978342         2.020759
 H        -1.619914        -1.874433         2.073398
 H        -2.595260        -2.071460         0.543101
 H         0.071625        -1.853604         0.289607
 H        -1.015712        -1.365810        -0.911672
 H        -0.480949         2.313410        -0.154343
 H        -1.391810         1.129627        -1.147434
 H        -2.851020         1.904814         0.830973
