19
Iteration:  2190
 C        -3.963535        -0.170386         1.878982
 C        -2.538138        -0.104853         1.427395
 C        -1.691077        -1.454050         1.280336
 C        -0.360347        -1.308644         0.551537
 C         0.067435         0.072402        -0.027151
 O         1.193170         0.177731        -0.470062
 C        -0.723660         1.393881         0.310248
 C        -1.926316         1.217553         1.151928
 O        -1.930891         0.733666         2.509973
 H        -4.405208        -1.154534         2.146612
 H        -4.078692         0.473527         2.696515
 H        -4.716606         0.290574         1.137533
 H        -1.519110        -1.812883         2.298900
 H        -2.367156        -2.104042         0.732524
 H         0.347967        -1.309075         1.408170
 H         0.070776        -2.187577        -0.007321
 H        -0.013161         2.125891         0.572108
 H        -1.149784         1.659235        -0.742301
 H        -2.589834         1.964909         1.015721
