19
Iteration:  2061charge 0 multiplicity 1
 C        -3.679426        -0.143628         2.308753
 C        -2.386538        -0.088084         1.592898
 C        -2.089065        -1.310843         0.738579
 C        -0.578311        -1.304749         0.504052
 C         0.023692         0.170820         0.297421
 O         1.237393         0.385692         0.369966
 C        -1.087722         1.134248        -0.257482
 C        -2.051210         1.142068         0.898706
 O        -1.294390         0.609131         2.188634
 H        -3.756608        -0.450867         3.337844
 H        -4.204042         0.732617         2.288997
 H        -4.307776        -0.867732         1.739109
 H        -2.564877        -2.222129         1.159078
 H        -2.721933        -1.287257        -0.167857
 H        -0.071997        -1.818207         1.337119
 H        -0.375236        -1.876509        -0.384484
 H        -0.672130         2.188517        -0.492926
 H        -1.405175         0.781616        -1.164865
 H        -2.650942         1.990729         1.216185
