19
Iteration:  4036charge 0 multiplicity 1
 C        -3.902725        -0.500557         1.474841
 C        -2.472251        -0.123703         1.473804
 C        -1.535349        -1.339575         1.149597
 C         0.010602        -1.047897         1.050398
 C         0.124355         0.180898         0.134328
 O         0.268804         0.176108        -1.130407
 C        -0.413789         1.410275         0.734471
 C        -1.860569         1.245181         1.238125
 O        -1.947351         0.623213         2.606544
 H        -4.151389        -1.056674         2.316863
 H        -4.683361         0.279203         1.391998
 H        -4.205213        -0.996899         0.544005
 H        -1.634788        -2.005226         2.048176
 H        -1.918845        -1.924450         0.332172
 H         0.517269        -0.871293         2.032068
 H         0.284547        -2.036326         0.668447
 H         0.183568         1.714796         1.596894
 H        -0.301313         2.268336        -0.080019
 H        -2.517058         2.223970         1.226655
