19
Iteration:   115
 C        -3.816886        -0.012045         2.230749
 C        -2.381956        -0.097718         1.620752
 C        -1.777879        -1.369831         1.036440
 C        -0.729524        -1.356183        -0.059344
 C        -0.001952         0.058283         0.112764
 O         1.077070         0.136855         0.729075
 C        -0.938253         1.184084        -0.299885
 C        -1.832315         1.138444         0.970933
 O        -1.401097         0.842484         2.236689
 H        -4.177699        -0.678896         2.985131
 H        -4.052944         1.023544         2.616879
 H        -4.484271        -0.055260         1.390480
 H        -1.426852        -1.835302         2.050410
 H        -2.709321        -2.030907         0.721722
 H         0.024202        -2.213511         0.038259
 H        -1.166894        -1.319994        -1.114939
 H        -0.649614         2.245344        -0.458751
 H        -1.657618         0.994843        -1.182744
 H        -2.597793         1.939687         0.965396
