19
Iteration:  2896charge 0 multiplicity 1
 C        -3.611083        -0.379002         2.425960
 C        -2.492369        -0.158831         1.469301
 C        -1.882938        -1.458436         1.087135
 C        -0.735985        -1.171803         0.116028
 C         0.027831         0.215537         0.283253
 O         1.239462         0.285642         0.593245
 C        -0.904243         1.340129        -0.209061
 C        -2.082388         1.124082         0.808848
 O        -1.487797         0.786904         2.004887
 H        -3.331728        -0.839663         3.437301
 H        -4.162892         0.431251         2.750074
 H        -4.392598        -1.051099         1.946034
 H        -1.689454        -1.861083         2.024936
 H        -2.659251        -2.008240         0.506691
 H         0.120516        -1.881405         0.308235
 H        -0.952173        -1.424364        -0.932053
 H        -0.444624         2.405236        -0.244406
 H        -1.346282         1.254561        -1.184246
 H        -2.829870         1.962358         0.837128
