19
Iteration:  1068
 C        -3.719187        -0.325540         1.062116
 C        -2.259963        -0.081830         1.476438
 C        -1.503217        -1.387192         1.187829
 C         0.007010        -1.134472         1.102884
 C        -0.061493         0.071112         0.188799
 O        -0.085710        -0.090904        -1.007661
 C        -0.282561         1.456292         0.874049
 C        -1.719763         1.287675         1.311596
 O        -2.070696         0.798248         2.643350
 H        -4.032165        -1.319620         1.344538
 H        -4.333707         0.500175         1.559267
 H        -3.838129        -0.043013         0.002324
 H        -1.801817        -2.026429         1.978267
 H        -1.687711        -1.830004         0.202356
 H         0.604989        -0.943231         1.977021
 H         0.493722        -1.864528         0.407666
 H         0.366581         1.670697         1.756060
 H        -0.215033         2.199734         0.024834
 H        -2.481854         1.979726         0.910191
