19
Iteration:   859
 C        -3.890575        -0.152505         1.997140
 C        -2.485639        -0.101031         1.622561
 C        -1.927524        -1.294670         0.782393
 C        -0.347922        -1.274989         0.692063
 C         0.136160         0.073288         0.201141
 O         1.227145         0.305224        -0.305986
 C        -1.011913         1.190465         0.006440
 C        -1.936299         1.261671         1.213064
 O        -1.603180         0.580866         2.528173
 H        -4.110923        -1.040986         2.620581
 H        -4.254071         0.704543         2.493432
 H        -4.550407        -0.200306         1.090355
 H        -2.307182        -2.252181         1.177609
 H        -2.442675        -1.151502        -0.204669
 H         0.218601        -1.394612         1.624905
 H        -0.010369        -1.978424        -0.000853
 H        -0.587090         2.057463        -0.235921
 H        -1.626097         0.789111        -0.837433
 H        -2.582431         2.143481         1.333898
