19
Iteration:   166charge 0 multiplicity 1
 C        -3.919080        -0.104934         2.168387
 C        -2.575328        -0.031919         1.515890
 C        -2.004246        -1.436689         1.087627
 C        -0.663065        -1.301580         0.263877
 C         0.081128         0.043380         0.178206
 O         1.336107         0.122631         0.132894
 C        -0.721997         1.285748        -0.005003
 C        -1.941352         1.257734         0.965126
 O        -1.540342         0.766149         2.267661
 H        -3.810598        -0.555415         3.250038
 H        -4.458167         0.782808         2.283145
 H        -4.599342        -0.888066         1.729763
 H        -1.827344        -1.892648         2.038035
 H        -2.685168        -2.056241         0.600383
 H         0.119032        -1.943541         0.820203
 H        -0.643156        -1.632321        -0.734331
 H        -0.127544         2.228772         0.202883
 H        -1.075722         1.340813        -0.989251
 H        -2.532452         2.136377         1.089476
