19
Iteration:  3445charge 0 multiplicity 1
 C        -3.884529        -0.523112         1.660535
 C        -2.438346        -0.163381         1.643006
 C        -1.403751        -1.336316         1.525573
 C        -0.483854        -1.217501         0.353737
 C         0.107479         0.143382         0.025812
 O         1.089563         0.155354        -0.656254
 C        -0.708366         1.484606         0.426482
 C        -2.058562         1.117177         1.181519
 O        -2.054940         0.888879         2.609660
 H        -4.281919        -1.097902         2.495256
 H        -4.487683         0.503058         1.594514
 H        -4.137885        -1.032601         0.717449
 H        -0.913234        -1.400203         2.501551
 H        -2.007512        -2.300137         1.438619
 H         0.405992        -1.874109         0.246020
 H        -0.830385        -1.255573        -0.771713
 H         0.005775         2.068018         1.021516
 H        -0.917279         2.074418        -0.458674
 H        -2.809238         1.833260         0.946817
