19
Iteration:  2903charge 0 multiplicity 1
 C        -3.690005        -0.345206         2.463408
 C        -2.478752        -0.149183         1.465966
 C        -1.865044        -1.443069         1.033999
 C        -0.651587        -1.159500         0.130525
 C         0.073317         0.169897         0.294850
 O         1.228568         0.286784         0.553567
 C        -0.950385         1.342428        -0.162716
 C        -2.101214         1.155208         0.805386
 O        -1.474793         0.760288         1.996130
 H        -3.371570        -0.898403         3.391228
 H        -4.289446         0.640029         2.622837
 H        -4.458915        -0.968824         2.038571
 H        -1.526670        -1.950009         2.066969
 H        -2.581250        -2.161027         0.576468
 H         0.150490        -1.969504         0.307525
 H        -1.062292        -1.256974        -0.905494
 H        -0.502526         2.316397        -0.056267
 H        -1.396847         1.022459        -1.265838
 H        -2.891435         1.915896         0.847294
