19
Iteration:  2994charge 0 multiplicity 1
 C        -3.963894        -0.361016         1.870751
 C        -2.560609        -0.081357         1.477412
 C        -1.773724        -1.407902         1.304389
 C        -0.507384        -1.226823         0.421663
 C         0.122501         0.141247         0.148234
 O         1.277453         0.278952        -0.215973
 C        -0.949918         1.299792         0.104253
 C        -1.969414         1.240657         1.191819
 O        -1.572228         0.732303         2.421112
 H        -4.181069        -1.389700         2.298569
 H        -4.446081         0.356439         2.463509
 H        -4.670301        -0.331111         0.973549
 H        -1.455476        -1.704816         2.326249
 H        -2.468572        -2.151492         0.781891
 H         0.288777        -1.910181         0.777802
 H        -0.589320        -1.688209        -0.614431
 H        -0.391879         2.345169         0.089299
 H        -1.301617         1.210209        -1.005549
 H        -2.673862         2.116863         1.197324
