19
Iteration:  1741charge 0 multiplicity 1
 C        -3.884741        -0.309340         1.202193
 C        -2.465711        -0.025114         1.634353
 C        -1.392369        -1.152985         1.837308
 C        -0.336147        -1.304740         0.654775
 C         0.049336        -0.032795        -0.065966
 O         0.666117         0.063685        -1.105601
 C        -0.314563         1.115483         0.819814
 C        -1.799213         1.208586         1.254097
 O        -2.339964         1.025176         2.545600
 H        -4.606329        -0.452525         2.029901
 H        -4.229683         0.703833         0.594524
 H        -3.925458        -1.206047         0.605098
 H        -0.783917        -0.964791         2.739732
 H        -2.022223        -2.041949         1.932215
 H         0.615614        -1.827718         1.059218
 H        -0.595373        -2.111211        -0.022535
 H         0.192870         0.839320         1.809108
 H         0.270674         1.982212         0.349664
 H        -2.301037         1.957345         0.588667
