19
Iteration:   223charge 0 multiplicity 1
 C        -3.994676        -0.154136         1.892810
 C        -2.494736        -0.012719         1.550048
 C        -1.913279        -1.330056         0.940063
 C        -0.385142        -1.383661         0.788991
 C         0.098863        -0.092274         0.114574
 O         1.167807         0.087924        -0.486492
 C        -0.673004         1.239717         0.316146
 C        -1.908129         1.289074         1.145572
 O        -1.757946         0.890385         2.444228
 H        -4.110711        -0.883097         2.764617
 H        -4.377546         0.840764         2.320960
 H        -4.624480        -0.464428         1.066751
 H        -2.273199        -2.179972         1.493759
 H        -2.342809        -1.372224        -0.047505
 H         0.127157        -1.312895         1.819914
 H         0.041716        -2.250679         0.326737
 H         0.076763         2.035237         0.453232
 H        -1.145710         1.373987        -0.634383
 H        -2.532343         2.169177         0.914338
