19
Iteration:    74charge 0 multiplicity 1
 C        -3.623859        -0.257397         2.264193
 C        -2.424507        -0.055486         1.430394
 C        -1.754993        -1.338886         1.120206
 C        -0.808051        -1.403927        -0.059517
 C        -0.116759        -0.060993         0.211427
 O         1.016227         0.038804         0.767084
 C        -0.812514         1.339910        -0.191474
 C        -1.947163         1.300712         0.857223
 O        -1.415207         1.007548         2.132309
 H        -3.863331        -1.264373         2.502383
 H        -3.495079         0.540400         3.177330
 H        -4.642382         0.005849         1.739015
 H        -1.170002        -1.743158         1.943945
 H        -2.596818        -2.037099         0.965883
 H        -0.255643        -2.268759         0.027351
 H        -1.460408        -1.468306        -1.035897
 H        -0.142360         2.150960        -0.155916
 H        -1.250587         1.174017        -1.247717
 H        -2.724211         2.167743         0.910189
