19
Iteration:   281charge 0 multiplicity 1
 C        -4.067060        -0.034618         1.512301
 C        -2.493689        -0.057449         1.450661
 C        -1.659581        -1.383878         1.045427
 C        -0.194230        -0.983009         1.159895
 C         0.124303         0.067253         0.112552
 O         0.766990        -0.237680        -0.892238
 C        -0.565639         1.369738         0.365175
 C        -1.836219         1.262093         1.299432
 O        -1.865781         0.593628         2.668589
 H        -4.377958        -0.887424         2.026394
 H        -4.297729         0.905725         2.121754
 H        -4.584271         0.005502         0.542211
 H        -1.999867        -2.172548         1.786733
 H        -2.014017        -1.770348         0.000528
 H        -0.051870        -0.651830         2.159967
 H         0.592401        -1.834337         0.948678
 H         0.194159         2.001692         0.742518
 H        -0.932147         1.890923        -0.574379
 H        -2.503177         2.194668         1.252884
