19
Iteration:  1949
 C        -3.860173        -0.092011         2.078702
 C        -2.461919        -0.094859         1.501913
 C        -1.762509        -1.406771         1.266361
 C        -0.548717        -1.343076         0.210887
 C         0.031442         0.068313         0.027174
 O         1.213193         0.316028         0.200363
 C        -0.898126         1.289823        -0.056928
 C        -1.953621         1.146118         0.974257
 O        -1.683071         0.692189         2.368179
 H        -3.806711        -0.816789         2.857500
 H        -3.966808         0.884983         2.612167
 H        -4.673801        -0.315995         1.441516
 H        -1.326807        -1.855983         2.219013
 H        -2.466823        -2.243037         0.906447
 H         0.276949        -2.041947         0.385682
 H        -0.891584        -1.763353        -0.756690
 H        -0.203618         2.066066         0.076826
 H        -1.348264         1.363834        -1.058563
 H        -2.475794         2.065222         0.986428
