19
Iteration:  4098
 C        -4.060937        -0.382601         1.662823
 C        -2.512296        -0.167842         1.473288
 C        -1.650028        -1.224240         1.016859
 C        -0.039048        -0.970434         1.084238
 C         0.088375         0.146835         0.092000
 O         0.668422         0.171412        -1.045682
 C        -0.636001         1.408085         0.495466
 C        -1.871458         1.175304         1.353114
 O        -1.829826         0.466905         2.607706
 H        -4.228365        -0.773088         2.740780
 H        -4.520352         0.559393         1.537023
 H        -4.332831        -1.316876         1.059692
 H        -1.898478        -2.145218         1.683878
 H        -1.943549        -1.508661        -0.035815
 H         0.510414        -0.611508         2.012900
 H         0.451729        -1.863239         0.713411
 H         0.060201         2.147953         0.975581
 H        -0.807456         1.684708        -0.509482
 H        -2.399670         2.065303         1.462765
