19
Iteration:  2778
 C        -3.873883        -0.357120         2.050306
 C        -2.481498        -0.105743         1.549387
 C        -1.672348        -1.428248         1.300766
 C        -0.584569        -1.218010         0.252201
 C         0.003355         0.135789         0.161074
 O         1.267406         0.235216         0.032833
 C        -0.887643         1.312973         0.094486
 C        -2.117150         1.219924         0.930857
 O        -1.589314         0.777206         2.290996
 H        -4.078395        -1.149377         2.762504
 H        -4.205894         0.507832         2.514399
 H        -4.608257        -0.494851         1.206432
 H        -1.149589        -1.719126         2.233291
 H        -2.385045        -2.200895         0.940686
 H         0.289726        -1.829194         0.418032
 H        -0.896482        -1.527676        -0.746798
 H        -0.281348         2.286182         0.344008
 H        -1.207804         1.410031        -0.963949
 H        -2.801009         2.088323         0.833871
