19
Iteration:  4352charge 0 multiplicity 1
 C        -3.681721        -0.358263         2.276805
 C        -2.375308        -0.110244         1.566333
 C        -1.866384        -1.420858         0.886705
 C        -0.508000        -1.285287         0.213885
 C         0.016063         0.133293         0.017936
 O         1.207177         0.338373         0.250417
 C        -1.044713         1.309423        -0.092760
 C        -2.058374         1.253529         1.094899
 O        -1.570196         0.748589         2.372703
 H        -3.647174        -0.215454         3.366037
 H        -4.636014         0.272218         2.021847
 H        -4.051510        -1.418219         2.182056
 H        -1.729926        -2.222320         1.639193
 H        -2.589035        -1.716164         0.128171
 H         0.354236        -1.602836         0.878409
 H        -0.506298        -1.930544        -0.684557
 H        -0.607414         2.287914        -0.329039
 H        -1.573144         1.100151        -1.045503
 H        -2.820862         2.085780         1.106911
