19
Iteration:  1564charge 0 multiplicity 1
 C        -3.754267        -0.361398         1.170202
 C        -2.358179        -0.010433         1.561203
 C        -1.371363        -1.203495         1.888939
 C        -0.428553        -1.346607         0.644502
 C         0.030060        -0.024315         0.004343
 O         0.464655         0.070436        -1.134242
 C        -0.199677         1.127566         1.025534
 C        -1.736566         1.262266         1.127077
 O        -2.373846         1.087650         2.486716
 H        -4.186301        -0.937598         2.063450
 H        -4.290499         0.500382         0.938323
 H        -3.741270        -1.007171         0.241541
 H        -0.928884        -1.087227         2.866220
 H        -1.958792        -2.101069         2.017913
 H         0.450161        -2.021977         0.910975
 H        -1.026264        -1.792740        -0.169681
 H         0.164737         0.991216         2.066616
 H         0.309525         2.027543         0.672022
 H        -2.312635         1.869765         0.451937
