19
Iteration:  3463charge 0 multiplicity 1
 C        -3.852034        -0.532198         1.658697
 C        -2.406623        -0.185010         1.658302
 C        -1.498257        -1.404207         1.561423
 C        -0.560781        -1.211006         0.359905
 C         0.034108         0.205699        -0.038521
 O         1.118484         0.215644        -0.516260
 C        -0.743509         1.437893         0.335725
 C        -1.962890         1.223876         1.160901
 O        -1.957547         0.846188         2.563947
 H        -3.946849        -1.535821         2.089831
 H        -4.544406         0.204755         2.055931
 H        -4.322950        -0.679761         0.702719
 H        -0.904939        -1.468521         2.461638
 H        -2.114445        -2.217451         1.288161
 H         0.302754        -1.834330         0.548917
 H        -1.085170        -1.612451        -0.487993
 H        -0.106794         2.298255         0.829597
 H        -0.998686         1.866871        -0.653215
 H        -2.826293         1.857555         0.831921
