19
Iteration:  3021charge 0 multiplicity 1
 C        -3.922999        -0.255493         1.943493
 C        -2.513180        -0.164328         1.626960
 C        -1.693558        -1.430128         1.259240
 C        -0.402720        -1.194210         0.459541
 C         0.122482         0.095726         0.038523
 O         1.241400         0.260648        -0.398168
 C        -0.764463         1.360708         0.256182
 C        -2.019662         1.144844         1.038764
 O        -1.902368         0.748252         2.468048
 H        -4.331380        -1.194127         2.246496
 H        -4.331927         0.631605         2.573112
 H        -4.567593        -0.070469         1.085840
 H        -1.510292        -2.059140         2.158750
 H        -2.364703        -1.990489         0.652708
 H         0.420519        -1.645720         1.065979
 H        -0.400754        -1.871878        -0.420298
 H        -0.140978         2.146968         0.677690
 H        -0.935613         1.605958        -0.764201
 H        -2.779793         1.903624         0.917699
