19
Iteration:    39charge 0 multiplicity 1
 C        -3.777435        -0.153549         2.309102
 C        -2.399790        -0.048512         1.646690
 C        -1.726000        -1.269384         1.151992
 C        -0.807180        -1.246246        -0.075571
 C         0.055915        -0.014650         0.193196
 O         1.223400        -0.045601         0.530402
 C        -0.724717         1.221908        -0.098462
 C        -2.034059         1.156519         0.739065
 O        -1.675574         0.966653         2.186506
 H        -3.889279        -1.106881         2.832062
 H        -3.918398         0.564588         3.196219
 H        -4.564847         0.133686         1.610479
 H        -1.158734        -1.830768         1.977813
 H        -2.613482        -1.949065         0.871039
 H        -0.267320        -2.256680        -0.016582
 H        -1.334243        -1.086084        -1.048082
 H        -0.122221         2.149929         0.091169
 H        -0.958193         1.239938        -1.211134
 H        -2.818469         1.931950         0.637103
