19
Iteration:  2067
 C        -3.706467        -0.148245         2.278805
 C        -2.443981        -0.114334         1.578885
 C        -2.102137        -1.331392         0.767931
 C        -0.629690        -1.215460         0.546598
 C         0.063518         0.181698         0.334876
 O         1.252742         0.398063         0.318238
 C        -1.010815         1.162096        -0.261470
 C        -2.070887         1.096630         0.927596
 O        -1.259439         0.567678         2.174041
 H        -3.731184        -0.461577         3.348730
 H        -4.303066         0.892709         2.226957
 H        -4.343752        -0.917824         1.844054
 H        -2.460864        -2.209776         1.313218
 H        -2.724108        -1.128289        -0.129079
 H        -0.036065        -1.840524         1.229865
 H        -0.398559        -1.851845        -0.376356
 H        -0.648240         2.096757        -0.539772
 H        -1.585384         0.666543        -1.212877
 H        -2.679719         2.014915         1.140219
