19
Iteration:  4548charge 0 multiplicity 1
 C        -3.788869        -0.558508         1.760822
 C        -2.370270        -0.130861         1.673978
 C        -1.420479        -1.352762         1.584495
 C        -0.805699        -1.279765         0.170165
 C         0.121234         0.052459         0.017225
 O         1.213897         0.294357        -0.436028
 C        -0.742422         1.305566         0.312707
 C        -1.951680         1.200678         1.132238
 O        -2.035503         1.003366         2.522898
 H        -4.000629        -1.585462         1.581418
 H        -4.333261        -0.159911         2.641173
 H        -4.364896        -0.073563         0.974843
 H        -0.684039        -1.411504         2.398319
 H        -2.108348        -2.235576         1.587184
 H        -0.211371        -2.181930        -0.084184
 H        -1.732227        -1.096252        -0.423512
 H         0.015574         1.962228         0.798710
 H        -0.969897         1.687198        -0.725266
 H        -2.814733         1.783337         0.830742
