19
Iteration:  3651charge 0 multiplicity 1
 C        -3.679797        -0.438464         2.317646
 C        -2.343200        -0.210615         1.557613
 C        -1.800398        -1.509855         1.062957
 C        -0.606178        -1.146007         0.035589
 C        -0.088506         0.239970         0.151315
 O         1.077239         0.426858         0.536450
 C        -0.983561         1.367408        -0.217811
 C        -2.028932         1.175795         0.923777
 O        -1.459510         0.674648         2.191829
 H        -3.436552        -0.423485         3.380551
 H        -4.399724         0.336244         1.998979
 H        -4.024840        -1.417109         2.158722
 H        -1.477852        -1.931621         2.003293
 H        -2.581155        -2.175075         0.598358
 H         0.250973        -1.818871         0.223172
 H        -0.893556        -1.240796        -0.984293
 H        -0.434355         2.377667        -0.315487
 H        -1.622764         1.247153        -1.084436
 H        -2.737137         1.972264         1.196901
