19
Iteration:  1136
 C        -3.875401        -0.194574         1.524579
 C        -2.379745        -0.178695         1.495513
 C        -1.630143        -1.403520         1.124725
 C        -0.159217        -1.122428         0.983513
 C         0.053782         0.100510         0.110682
 O         0.629857         0.056995        -0.998888
 C        -0.506455         1.442410         0.669243
 C        -1.900481         1.185761         1.239884
 O        -1.985526         0.649984         2.597095
 H        -4.299227        -0.500272         2.481794
 H        -4.277033         0.901089         1.301285
 H        -4.286979        -0.687517         0.640809
 H        -1.795068        -2.040859         1.984889
 H        -2.216194        -1.693926         0.228159
 H         0.257224        -1.067152         2.000622
 H         0.268367        -1.973997         0.332253
 H         0.064343         1.884723         1.572567
 H        -0.578737         2.135075        -0.081819
 H        -2.542410         2.046352         0.959136
