19
Iteration:   767charge 0 multiplicity 1
 C        -3.634930        -0.262021         2.449338
 C        -2.373917        -0.055625         1.605255
 C        -1.948656        -1.339370         0.819597
 C        -0.536734        -1.302242         0.097242
 C         0.019661         0.046447         0.196532
 O         1.125028         0.272216         0.636680
 C        -0.980071         1.132162        -0.247704
 C        -2.055817         1.242932         0.856110
 O        -1.475063         0.833652         2.198206
 H        -3.310478        -0.768513         3.399289
 H        -4.116712         0.802199         2.647219
 H        -4.513576        -0.757628         2.000463
 H        -2.124575        -2.212901         1.420859
 H        -2.678303        -1.358086         0.021620
 H         0.093363        -2.108173         0.465326
 H        -0.685805        -1.437163        -1.061054
 H        -0.486575         2.094816        -0.567746
 H        -1.513619         0.729351        -1.182581
 H        -2.771969         2.063253         0.992166
