19
Iteration:  2859
 C        -3.681208        -0.327756         2.371528
 C        -2.429390        -0.112630         1.558695
 C        -1.733746        -1.357657         0.993817
 C        -0.536959        -1.380692        -0.078990
 C        -0.008535         0.078270         0.123177
 O         1.076896         0.324549         0.660393
 C        -1.004590         1.175642        -0.144131
 C        -2.068894         1.217726         0.947441
 O        -1.530950         0.946364         2.154965
 H        -3.343830        -0.916115         3.219464
 H        -4.020185         0.752068         2.569687
 H        -4.360067        -0.890395         1.769507
 H        -1.354623        -2.149443         1.711887
 H        -2.586226        -1.910605         0.573145
 H         0.223362        -2.117333         0.287530
 H        -0.841088        -1.463301        -1.145957
 H        -0.494579         2.096246        -0.097723
 H        -1.464060         1.000911        -1.251118
 H        -2.777572         2.043657         0.866701
