19
Iteration:  4651
 C        -3.888708        -0.586076         1.695918
 C        -2.415706        -0.164287         1.645261
 C        -1.358781        -1.244427         1.656019
 C        -0.493758        -1.124314         0.365216
 C         0.154907         0.100112         0.006651
 O         1.076081         0.010528        -0.814569
 C        -0.669179         1.353861         0.614597
 C        -2.056701         1.101007         1.079335
 O        -2.145998         1.138850         2.521067
 H        -4.200504        -0.688526         0.599053
 H        -4.252085        -1.563036         2.056016
 H        -4.456044         0.278444         2.159845
 H        -0.793467        -1.423074         2.606730
 H        -1.872366        -2.178585         1.689852
 H         0.191906        -1.989636         0.205896
 H        -1.141776        -1.212562        -0.556944
 H        -0.002741         1.497164         1.463344
 H        -0.635509         2.218769        -0.135124
 H        -2.843508         1.732236         0.626634
