19
Iteration:  3417
 C        -3.963822        -0.537218         1.650942
 C        -2.503683        -0.179700         1.596484
 C        -1.372795        -1.255989         1.644338
 C        -0.555335        -1.281446         0.302176
 C         0.098683         0.070729        -0.038378
 O         1.076175         0.360206        -0.766371
 C        -0.541493         1.291137         0.646960
 C        -1.966968         1.116697         1.111823
 O        -2.115161         0.920660         2.567167
 H        -4.272372        -0.607129         2.736177
 H        -4.558429         0.099795         1.094300
 H        -4.308069        -1.511711         1.232123
 H        -0.687813        -0.939631         2.472197
 H        -1.927520        -2.169602         1.720193
 H         0.289761        -1.976821         0.347319
 H        -1.016199        -1.391137        -0.627508
 H         0.197651         1.630762         1.427279
 H        -0.548002         2.114265        -0.133856
 H        -2.742750         1.857455         0.721615
