19
Iteration:  3002
 C        -4.030064        -0.337557         1.881680
 C        -2.524388        -0.110181         1.519494
 C        -1.737918        -1.429556         1.287078
 C        -0.451309        -1.295234         0.452340
 C         0.110700         0.184939         0.121006
 O         1.247249         0.273132        -0.279494
 C        -0.820554         1.373063         0.071542
 C        -1.950627         1.220268         1.140198
 O        -1.677682         0.725348         2.463614
 H        -4.174668        -1.399983         2.305365
 H        -4.373847         0.417132         2.583221
 H        -4.777204        -0.263480         1.098503
 H        -1.729563        -1.813345         2.374050
 H        -2.469016        -2.178728         0.916490
 H         0.412642        -1.869876         0.935744
 H        -0.603662        -1.458226        -0.596943
 H        -0.275445         2.239095         0.319982
 H        -1.382425         1.361679        -0.873345
 H        -2.725601         2.008049         1.097194
