19
Iteration:  2298
 C        -4.153098        -0.233353         1.595146
 C        -2.543820        -0.140800         1.539408
 C        -1.603254        -1.357939         0.873521
 C        -0.080685        -1.028295         1.227816
 C         0.229859         0.149973         0.216154
 O         0.499403        -0.065029        -0.955511
 C        -0.489196         1.431793         0.527577
 C        -1.885772         1.178029         1.199967
 O        -1.758958         0.654548         2.529232
 H        -4.408581        -0.656619         2.582284
 H        -4.411172         0.728005         1.416255
 H        -4.412479        -1.061700         0.883151
 H        -1.955461        -2.263495         1.243802
 H        -1.854208        -1.336879        -0.165247
 H        -0.129239        -0.689181         2.220011
 H         0.600626        -1.896810         1.103494
 H         0.093715         1.957567         1.372169
 H        -0.400368         2.030074        -0.439368
 H        -2.525290         2.031990         1.217030
