19
Iteration:   411
 C        -3.682174        -0.289485         1.051505
 C        -2.285607        -0.075067         1.461917
 C        -1.499544        -1.332922         1.713311
 C        -0.252665        -1.285802         0.876558
 C         0.000281         0.021742         0.076339
 O         0.174540         0.014244        -1.111763
 C        -0.210281         1.297776         0.955610
 C        -1.678770         1.219006         1.210992
 O        -2.265752         0.995933         2.568299
 H        -4.302055        -0.589278         1.883332
 H        -4.245415         0.739590         0.669360
 H        -3.751157        -0.926372         0.119644
 H        -1.247703        -1.437381         2.727778
 H        -2.142682        -2.108334         1.453616
 H         0.570527        -1.499103         1.529618
 H        -0.321374        -2.086584         0.015716
 H         0.440643         1.104253         1.827880
 H         0.128659         2.287109         0.504414
 H        -2.260209         1.974424         0.576636
