19
Iteration:  3590
 C        -3.663761        -0.405401         2.312769
 C        -2.397670        -0.217347         1.528744
 C        -1.671597        -1.461173         1.095551
 C        -0.624296        -1.158281        -0.025598
 C        -0.007652         0.174849         0.032309
 O         1.138026         0.362692         0.508114
 C        -0.947084         1.377547        -0.203176
 C        -2.050368         1.114616         0.997181
 O        -1.637500         0.820644         2.301724
 H        -3.411494        -0.638237         3.393964
 H        -4.418414         0.331833         2.412373
 H        -4.292020        -1.331464         1.969522
 H        -1.192534        -2.111909         1.863623
 H        -2.452459        -2.165077         0.738652
 H         0.214403        -1.880680         0.037727
 H        -1.104353        -1.379786        -1.062692
 H        -0.365649         2.242418        -0.274278
 H        -1.667094         1.284590        -1.062965
 H        -2.810539         1.912335         0.977046
