19
Iteration:  3028charge 0 multiplicity 1
 C        -3.948484        -0.242045         1.932256
 C        -2.488146        -0.179860         1.609098
 C        -1.687654        -1.414671         1.244732
 C        -0.382991        -1.234458         0.460992
 C         0.117464         0.136689         0.033237
 O         1.266653         0.244545        -0.454372
 C        -0.741385         1.291639         0.319255
 C        -2.084279         1.125409         1.064502
 O        -1.904726         0.809443         2.471548
 H        -4.313148        -1.171205         2.381576
 H        -4.179324         0.594773         2.636480
 H        -4.504787        -0.089088         0.954167
 H        -1.646372        -2.046728         2.104211
 H        -2.439720        -2.017051         0.639629
 H         0.365715        -1.430494         1.190334
 H        -0.241895        -1.805538        -0.492699
 H        -0.183168         2.038842         1.030216
 H        -1.004486         1.723014        -0.730759
 H        -2.904055         1.830821         0.824268
