19
Iteration:  3132charge 0 multiplicity 1
 C        -3.936053        -0.223194         1.409330
 C        -2.422647        -0.163365         1.456717
 C        -1.619593        -1.338614         0.963522
 C        -0.028019        -0.867822         1.265084
 C         0.184301         0.138725         0.201495
 O         0.458666        -0.063491        -0.970114
 C        -0.680301         1.420174         0.486071
 C        -1.879038         1.140797         1.313159
 O        -1.845216         0.543612         2.643938
 H        -4.209497        -0.483173         2.505709
 H        -4.161944         0.846275         1.268896
 H        -4.242129        -0.929947         0.614664
 H        -1.719245        -2.338394         1.453412
 H        -1.712542        -1.399426        -0.064159
 H        -0.040201        -0.661280         2.380818
 H         0.615381        -1.680971         0.968407
 H        -0.044492         2.161397         1.035246
 H        -0.966891         1.858470        -0.453221
 H        -2.628331         1.928012         1.138325
