19
Iteration:  3851
 C        -3.914387        -0.564174         1.801970
 C        -2.451924        -0.164388         1.417696
 C        -1.699804        -1.409546         0.957083
 C        -0.209188        -0.972562         0.992113
 C         0.125346         0.300269         0.113961
 O         0.729928         0.070861        -0.887915
 C        -0.600344         1.598652         0.533079
 C        -1.901637         1.225703         1.298015
 O        -1.871076         0.546032         2.494883
 H        -3.822505        -0.857019         2.850354
 H        -4.504473         0.401375         1.838773
 H        -4.503737        -1.223561         1.069169
 H        -1.915901        -2.226316         1.635170
 H        -1.883793        -1.553209        -0.182068
 H         0.049127        -0.885148         2.070761
 H         0.478311        -1.655602         0.556479
 H         0.089287         2.332333         0.933188
 H        -0.969078         1.968607        -0.464871
 H        -2.798133         1.933644         1.381460
