19
Iteration:  4942charge 0 multiplicity 1
 C        -3.756917        -0.555746         1.501841
 C        -2.387021        -0.116824         1.627953
 C        -1.269344        -1.196939         1.788801
 C        -0.482350        -1.346762         0.403770
 C        -0.014685         0.056971        -0.018001
 O         0.674926         0.250652        -0.969409
 C        -0.415430         1.265221         0.858602
 C        -1.878337         1.269878         1.133936
 O        -2.252673         0.973832         2.453631
 H        -4.513955        -0.312671         2.344870
 H        -4.174356        -0.057432         0.672639
 H        -3.765565        -1.648228         1.159360
 H        -0.561593        -0.838719         2.500472
 H        -1.622966        -2.190577         2.021685
 H         0.335908        -2.094146         0.409223
 H        -1.257427        -1.591607        -0.343623
 H         0.043680         0.881066         1.766555
 H        -0.003227         2.232923         0.395974
 H        -2.667782         1.814274         0.529186
