19
Iteration:  1320charge 0 multiplicity 1
 C        -3.733110        -0.200636         2.287433
 C        -2.377749        -0.145351         1.573848
 C        -1.918855        -1.456799         0.861547
 C        -0.639857        -1.353921         0.060854
 C        -0.063326         0.053824         0.311856
 O         1.059253         0.402203         0.575512
 C        -0.943734         1.124098        -0.182321
 C        -2.011218         1.235853         0.987787
 O        -1.297236         0.816413         2.177950
 H        -3.722724        -0.428880         3.306770
 H        -3.969889         0.932300         2.334821
 H        -4.390163        -0.835097         1.732198
 H        -1.767140        -2.213779         1.641627
 H        -2.709397        -1.754900         0.116974
 H         0.083966        -2.096109         0.212486
 H        -0.982303        -1.316370        -1.055913
 H        -0.274535         2.078134        -0.187085
 H        -1.458122         1.135202        -1.192015
 H        -2.582843         2.202326         1.032998
