19
Iteration:  4502charge 0 multiplicity 1
 C        -3.899790        -0.482985         1.903865
 C        -2.437099        -0.211556         1.642935
 C        -1.397467        -1.336690         1.482213
 C        -0.606818        -1.181035         0.105665
 C         0.032219         0.148172        -0.159753
 O         1.263366         0.067735        -0.195591
 C        -0.786177         1.464907         0.188411
 C        -2.087899         1.206903         1.079732
 O        -1.928237         0.885597         2.520376
 H        -4.248630        -1.437505         2.066238
 H        -4.157155         0.128863         2.807184
 H        -4.724620        -0.099117         1.269611
 H        -0.668423        -1.222690         2.268054
 H        -1.835421        -2.440483         1.563083
 H         0.211314        -1.993447         0.213723
 H        -1.391576        -1.278787        -0.681352
 H        -0.090650         2.198826         0.786625
 H        -1.189741         1.989792        -0.650796
 H        -2.917551         1.889995         1.029015
