19
Iteration:  3285charge 0 multiplicity 1
 C        -3.816128        -0.495352         1.219194
 C        -2.380449        -0.148033         1.668341
 C        -1.398711        -1.270770         1.761453
 C        -0.340810        -1.242453         0.633284
 C         0.055733         0.116993        -0.016991
 O         0.603384         0.191453        -1.099220
 C        -0.385877         1.308085         0.784826
 C        -1.801765         1.177429         1.216462
 O        -2.303839         0.946744         2.609377
 H        -3.971153        -1.584658         1.379691
 H        -4.593496         0.092901         1.696485
 H        -3.846904        -0.354116         0.122175
 H        -1.020261        -1.180454         2.840435
 H        -1.926317        -2.208363         1.870128
 H         0.695170        -1.630199         0.909777
 H        -0.633264        -1.930123        -0.182335
 H         0.201815         1.349829         1.822934
 H        -0.159259         2.268486         0.217357
 H        -2.607301         1.905937         0.729477
