19
Iteration:  3124charge 0 multiplicity 1
 C        -3.955651        -0.216212         1.483028
 C        -2.469759        -0.191770         1.494266
 C        -1.569869        -1.253629         0.972620
 C        -0.087586        -0.880491         1.227749
 C         0.118354         0.179130         0.191379
 O         0.558644        -0.062395        -0.955471
 C        -0.630001         1.415845         0.480416
 C        -1.917906         1.114275         1.270688
 O        -1.797317         0.521620         2.621065
 H        -4.538138        -0.515405         2.459251
 H        -4.513529         0.670981         1.283443
 H        -4.186092        -1.040059         0.736583
 H        -1.877456        -2.263606         1.391495
 H        -1.718484        -1.364823        -0.150062
 H         0.007336        -0.406903         2.245000
 H         0.401056        -1.862089         1.036644
 H         0.037258         1.980949         1.046921
 H        -0.844745         1.759692        -0.544479
 H        -2.662582         1.953604         1.178786
