19
Iteration:  4857
 C        -3.774707        -0.490020         1.324115
 C        -2.373292        -0.100278         1.573923
 C        -1.275109        -1.275636         1.762341
 C        -0.349801        -1.335833         0.584374
 C        -0.151437         0.096988        -0.012007
 O         0.561142         0.126378        -1.011456
 C        -0.430599         1.330311         0.855073
 C        -1.886316         1.290583         1.198335
 O        -2.191948         0.921160         2.498385
 H        -3.968146        -1.466756         1.821052
 H        -4.344951         0.354979         1.614054
 H        -3.927673        -0.574188         0.226632
 H        -0.645955        -0.973663         2.720550
 H        -1.698674        -2.265255         1.966983
 H         0.638182        -1.622252         0.857286
 H        -0.580784        -2.047367        -0.235981
 H         0.345022         1.477117         1.592955
 H        -0.236597         2.333878         0.198829
 H        -2.482452         2.115090         0.779095
