19
Iteration:  2012
 C        -3.671464        -0.244884         2.335488
 C        -2.450423        -0.022131         1.577407
 C        -1.978369        -1.340341         0.876667
 C        -0.551415        -1.365432         0.268282
 C         0.060244         0.052763         0.161510
 O         1.189080         0.362261         0.479679
 C        -0.946787         1.123946        -0.284314
 C        -1.974369         1.228626         0.891696
 O        -1.541876         0.791203         2.226778
 H        -3.505763        -1.177452         2.888757
 H        -3.733818         0.499457         3.239112
 H        -4.648056        -0.279450         1.886858
 H        -2.114523        -2.162051         1.588035
 H        -2.869289        -1.653527         0.302170
 H         0.041681        -1.878892         1.057193
 H        -0.490680        -1.909622        -0.739679
 H        -0.461178         2.044078        -0.515690
 H        -1.685950         0.973705        -1.189999
 H        -2.571604         2.189758         1.057218
