19
Iteration:  2159
 C        -4.024149        -0.335986         1.957482
 C        -2.560055        -0.042257         1.600408
 C        -1.861631        -1.320326         1.213021
 C        -0.454017        -1.271144         0.567916
 C         0.160498         0.134204         0.152305
 O         1.301012         0.160569        -0.333334
 C        -0.833867         1.328326         0.154972
 C        -2.016777         1.211822         1.055787
 O        -1.608160         0.760339         2.379695
 H        -4.221513        -1.373562         2.224170
 H        -4.436115         0.295227         2.627220
 H        -4.595566        -0.314448         1.009233
 H        -1.858756        -2.061104         2.075395
 H        -2.467536        -1.733946         0.382393
 H         0.291905        -1.916157         1.086526
 H        -0.483200        -1.729592        -0.456224
 H        -0.259656         2.318945         0.480184
 H        -1.160923         1.568701        -0.928448
 H        -2.649919         2.041090         1.123058
