19
Iteration:  4410charge 0 multiplicity 1
 C        -3.863605        -0.245174         2.167953
 C        -2.540368        -0.225682         1.455474
 C        -1.650988        -1.460182         1.197505
 C        -0.529375        -1.272234         0.146313
 C         0.032883         0.171973         0.114147
 O         1.240796         0.353222         0.034123
 C        -1.010790         1.408676         0.018507
 C        -1.980155         1.162179         1.072195
 O        -1.620739         0.661131         2.368702
 H        -3.618376        -0.198718         3.314844
 H        -4.447589         0.596227         1.821751
 H        -4.436627        -1.168707         2.001499
 H        -1.264348        -1.768841         2.242921
 H        -2.187810        -2.327702         0.901612
 H         0.339560        -1.851137         0.278100
 H        -0.993361        -1.405759        -0.883351
 H        -0.553332         2.293129         0.298869
 H        -1.362123         1.434539        -0.995619
 H        -2.728964         1.975994         1.297712
