19
Iteration:  3573
 C        -3.681722        -0.556987         2.237508
 C        -2.391433        -0.114921         1.556161
 C        -1.674890        -1.400796         1.122180
 C        -0.627346        -1.229319         0.023372
 C        -0.032574         0.184852         0.150654
 O         1.195406         0.327600         0.364223
 C        -1.020798         1.311825        -0.066014
 C        -2.105166         1.219512         0.909186
 O        -1.573349         0.833663         2.265369
 H        -3.442917        -0.976817         3.186259
 H        -4.286023         0.401223         2.486060
 H        -4.258492        -1.171802         1.634238
 H        -1.303765        -1.651349         2.127779
 H        -2.333518        -2.219911         0.847992
 H         0.094127        -2.038720         0.033150
 H        -1.149032        -1.264487        -0.902402
 H        -0.587476         2.329015         0.282910
 H        -1.236606         1.342834        -1.117725
 H        -2.881948         1.991264         0.949032
