19
Iteration:  2578
 C        -3.759385        -0.564741         1.494947
 C        -2.422791        -0.111189         1.758216
 C        -1.358077        -1.245941         1.756716
 C        -0.857077        -1.285790         0.252933
 C         0.068419         0.078552        -0.051509
 O         1.051980         0.212890        -0.713059
 C        -0.454303         1.237196         0.723192
 C        -1.877569         1.057276         1.070202
 O        -2.190999         1.156233         2.485409
 H        -4.147958        -1.489991         1.989568
 H        -4.595414         0.184331         1.667141
 H        -3.978656        -0.685408         0.419131
 H        -0.519752        -1.071151         2.480474
 H        -1.774787        -2.293499         2.049356
 H        -0.299355        -2.281991         0.003229
 H        -1.697162        -1.096925        -0.447879
 H         0.280790         1.339972         1.661255
 H        -0.381856         2.135527         0.137163
 H        -2.595167         1.665694         0.405304
