19
Iteration:  2537
 C        -3.842303        -0.523282         1.480559
 C        -2.429656        -0.076950         1.532079
 C        -1.369623        -1.167173         1.629445
 C        -0.579017        -1.265593         0.352929
 C         0.071232         0.067594        -0.044376
 O         0.948888        -0.007157        -0.851673
 C        -0.465255         1.370803         0.837328
 C        -1.936534         1.266470         1.171604
 O        -2.209599         0.956414         2.567948
 H        -4.142816        -0.796048         2.542018
 H        -4.537488         0.165968         1.111231
 H        -4.007091        -1.560344         0.959262
 H        -0.704230        -0.815539         2.432420
 H        -1.788888        -2.148779         1.976066
 H         0.279473        -2.017980         0.302480
 H        -1.355401        -1.390457        -0.433913
 H        -0.006494         1.250005         1.749399
 H        -0.168403         2.291314         0.392801
 H        -2.652616         2.057526         0.760820
