19
Iteration:  3843
 C        -3.946638        -0.530808         1.810823
 C        -2.465699        -0.207053         1.455174
 C        -1.697444        -1.323939         0.933384
 C        -0.222505        -0.959072         1.046230
 C         0.113294         0.299528         0.092239
 O         0.842050         0.117729        -0.927320
 C        -0.631296         1.522008         0.478424
 C        -1.936522         1.225758         1.278813
 O        -1.848421         0.505850         2.542068
 H        -3.856446        -1.103223         2.758492
 H        -4.529619         0.462074         2.052871
 H        -4.468336        -1.252925         1.154860
 H        -2.052323        -2.240491         1.468113
 H        -2.147711        -1.702967        -0.095391
 H        -0.086825        -0.788246         2.095424
 H         0.382038        -1.804993         0.715044
 H        -0.031764         2.336614         0.826318
 H        -1.013345         1.952582        -0.543383
 H        -2.508766         2.121966         1.356975
