19
Iteration:  3171
 C        -3.864200        -0.387717         1.268792
 C        -2.416373        -0.105887         1.449159
 C        -1.562508        -1.305784         1.257109
 C        -0.006509        -1.000097         1.135934
 C         0.052950         0.185496         0.107495
 O         0.349239        -0.072493        -1.033303
 C        -0.475616         1.447604         0.659205
 C        -1.858125         1.269200         1.291869
 O        -1.948334         0.622638         2.599980
 H        -4.227042        -1.120807         1.926934
 H        -4.591694         0.400038         1.611478
 H        -4.224624        -0.757650         0.314555
 H        -1.787424        -1.913040         2.135012
 H        -1.997064        -1.941973         0.392029
 H         0.512291        -0.717500         2.026345
 H         0.491679        -1.842529         0.624965
 H         0.124424         1.763501         1.540031
 H        -0.519002         2.214983        -0.149323
 H        -2.508194         2.150725         1.242847
