19
Iteration:  4996
 C        -3.795640        -0.605114         1.507842
 C        -2.389274        -0.095549         1.638599
 C        -1.278253        -1.216032         1.796815
 C        -0.628896        -1.198972         0.387445
 C         0.035547         0.072772        -0.058547
 O         0.881798         0.137972        -0.944034
 C        -0.434117         1.344199         0.731780
 C        -1.903109         1.233017         1.051199
 O        -2.264890         0.967656         2.598086
 H        -4.008638        -1.168201         2.498249
 H        -4.510987         0.150002         1.359325
 H        -4.077904        -1.389965         0.737656
 H        -0.550086        -1.098563         2.578279
 H        -1.699635        -2.235072         1.834652
 H         0.117055        -2.019270         0.242525
 H        -1.424775        -1.511385        -0.320685
 H        -0.009747         1.253955         1.788353
 H        -0.102201         2.314617         0.211119
 H        -2.750205         1.896457         0.712026
