19
Iteration:  2015
 C        -3.664048        -0.235391         2.353967
 C        -2.469839        -0.014893         1.547361
 C        -1.976005        -1.345399         0.853421
 C        -0.532615        -1.381750         0.278602
 C         0.052614         0.028665         0.141068
 O         1.170694         0.372669         0.486413
 C        -0.951653         1.129714        -0.302609
 C        -1.963346         1.236945         0.919173
 O        -1.549506         0.795261         2.250184
 H        -3.474247        -1.126574         2.886193
 H        -3.697770         0.450849         3.129825
 H        -4.630257        -0.340339         1.966370
 H        -2.159267        -2.131980         1.606764
 H        -2.865422        -1.620815         0.250233
 H         0.100218        -1.879150         1.012072
 H        -0.423701        -1.971512        -0.662806
 H        -0.506661         2.066954        -0.478847
 H        -1.633041         0.993029        -1.143333
 H        -2.427705         2.150530         0.955123
