19
Iteration:  3166
 C        -3.872083        -0.353639         1.297500
 C        -2.421752        -0.093363         1.425311
 C        -1.541429        -1.332396         1.221104
 C        -0.004340        -0.977784         1.140530
 C         0.031413         0.134198         0.147386
 O         0.354816        -0.079964        -1.019192
 C        -0.496662         1.466690         0.621861
 C        -1.847658         1.319474         1.310315
 O        -1.954368         0.583188         2.607829
 H        -4.233359        -1.182268         2.071678
 H        -4.516529         0.514490         1.399744
 H        -4.272588        -0.729381         0.314052
 H        -1.634258        -2.072008         2.070715
 H        -1.856994        -1.879393         0.362502
 H         0.555399        -0.812643         2.118465
 H         0.540780        -1.781526         0.617166
 H         0.204852         1.898881         1.352070
 H        -0.594902         2.217782        -0.149965
 H        -2.648095         2.087287         1.226096
