19
Iteration:  1620charge 0 multiplicity 1
 C        -3.617663        -0.321787         0.788083
 C        -2.334167        -0.014930         1.450926
 C        -1.446641        -1.172052         1.871577
 C        -0.232357        -1.414028         0.937841
 C        -0.013039        -0.022153         0.061580
 O         0.068711         0.023002        -1.174826
 C        -0.213770         1.232208         0.924132
 C        -1.691799         1.292468         1.347108
 O        -2.225652         0.969788         2.613287
 H        -4.360968        -0.828177         1.462323
 H        -4.107634         0.687901         0.632576
 H        -3.541891        -0.806445        -0.199526
 H        -1.123279        -0.811038         2.837047
 H        -1.948618        -2.090352         1.976721
 H         0.615835        -1.987305         1.472754
 H        -0.374552        -2.151944         0.143066
 H         0.411710         1.270027         1.867328
 H        -0.111526         2.057175         0.140946
 H        -2.253425         2.102800         0.844444
