19
Iteration:  3120charge 0 multiplicity 1
 C        -3.979554        -0.236722         1.522288
 C        -2.487653        -0.194520         1.520176
 C        -1.554514        -1.234104         0.967247
 C        -0.115285        -0.908902         1.205522
 C         0.088564         0.174760         0.153284
 O         0.601165        -0.058794        -0.931637
 C        -0.612274         1.404355         0.477120
 C        -1.918477         1.140325         1.255459
 O        -1.791558         0.522081         2.600459
 H        -4.519949        -0.624474         2.420052
 H        -4.596288         0.623686         1.142833
 H        -4.292279        -0.995189         0.801015
 H        -1.878656        -2.193140         1.391839
 H        -1.731475        -1.360231        -0.059845
 H         0.081196        -0.420516         2.181046
 H         0.442902        -1.825819         1.125858
 H         0.072514         2.094016         1.071078
 H        -0.805224         1.861748        -0.482761
 H        -2.638775         1.949418         1.268240
