19
Iteration:  3768
 C        -3.905364        -0.406159         1.935878
 C        -2.507463        -0.199908         1.513369
 C        -1.735952        -1.419818         1.113930
 C        -0.340886        -1.153281         0.617339
 C         0.046240         0.190958         0.116569
 O         1.139500         0.417110        -0.433584
 C        -0.950810         1.351797         0.192829
 C        -1.989460         1.218013         1.183016
 O        -1.661563         0.600805         2.442296
 H        -4.101322        -1.444652         2.103856
 H        -4.115741         0.247255         2.870296
 H        -4.588902        -0.149992         1.167405
 H        -1.734637        -2.061745         2.075668
 H        -2.155624        -2.016174         0.345024
 H         0.391621        -1.395526         1.406472
 H        -0.140300        -1.872381        -0.239634
 H        -0.376223         2.298792         0.232480
 H        -1.410158         1.412486        -0.823681
 H        -2.656880         2.003398         1.428327
