19
Iteration:   270charge 0 multiplicity 1
 C        -4.079778        -0.037794         1.619633
 C        -2.573517        -0.064895         1.459303
 C        -1.739382        -1.352471         1.034567
 C        -0.221445        -1.008411         1.098643
 C         0.118725         0.079108         0.110377
 O         0.884361        -0.258741        -0.813978
 C        -0.628599         1.469945         0.335406
 C        -1.776529         1.179632         1.324802
 O        -1.798450         0.582237         2.551109
 H        -4.541677        -0.838845         2.094007
 H        -4.500161         0.911382         2.112271
 H        -4.413880         0.023442         0.581103
 H        -1.834024        -2.151081         1.842253
 H        -2.016960        -1.812648        -0.015554
 H        -0.180870        -0.589642         2.069527
 H         0.589858        -1.866923         1.022540
 H        -0.076409         2.253475         0.765246
 H        -1.075104         1.799088        -0.656529
 H        -2.373664         2.171197         1.370640
