19
Iteration:  1334charge 0 multiplicity 1
 C        -3.662723        -0.124638         2.286484
 C        -2.340503        -0.101591         1.552896
 C        -1.885647        -1.434681         0.961280
 C        -0.652219        -1.283674         0.005891
 C         0.010121         0.072502         0.211233
 O         1.135397         0.269720         0.607556
 C        -1.013386         1.263518        -0.135353
 C        -2.025371         1.152010         0.896574
 O        -1.446833         0.771245         2.200243
 H        -3.420189        -0.486665         3.336409
 H        -4.174162         0.758888         2.311999
 H        -4.397479        -0.860631         1.826708
 H        -1.732307        -2.144041         1.730616
 H        -2.780793        -1.777371         0.492382
 H         0.072680        -2.151936         0.129270
 H        -0.912073        -1.323037        -1.054116
 H        -0.454286         2.298691        -0.132056
 H        -1.379379         0.966381        -1.125658
 H        -2.836755         1.829954         1.018560
