19
Iteration:  2244charge 0 multiplicity 1
 C        -3.987483        -0.355456         1.634607
 C        -2.491456        -0.057685         1.539193
 C        -1.770573        -1.364506         1.089736
 C        -0.275371        -1.189927         0.927137
 C         0.077699         0.065556         0.057795
 O         0.914016         0.062256        -0.814646
 C        -0.593889         1.403070         0.481674
 C        -1.899112         1.291300         1.253890
 O        -1.806708         0.746224         2.571670
 H        -4.167378        -1.203052         2.332047
 H        -4.548130         0.485322         1.987218
 H        -4.323145        -0.525280         0.565790
 H        -2.050822        -2.134042         1.783317
 H        -2.298717        -1.654873         0.195561
 H         0.077435        -0.957950         1.931367
 H         0.270699        -2.078794         0.554273
 H         0.126737         1.952205         0.890552
 H        -0.819262         1.835003        -0.523292
 H        -2.557376         2.116061         1.137403
