19
Iteration:   499charge 0 multiplicity 1
 C        -3.717479        -0.462617         1.225694
 C        -2.331386        -0.073744         1.627958
 C        -1.358698        -1.176793         1.883631
 C        -0.666546        -1.320419         0.464280
 C        -0.044333        -0.012831         0.012448
 O         0.675557         0.100518        -0.976765
 C        -0.235984         1.155860         0.942965
 C        -1.762436         1.191346         1.153637
 O        -2.341422         1.158019         2.479154
 H        -4.083566        -1.299540         1.819005
 H        -4.345795         0.508679         1.344577
 H        -3.640633        -0.931837         0.215229
 H        -0.706842        -0.921091         2.689115
 H        -1.828660        -2.062669         2.202598
 H         0.101357        -2.083011         0.315924
 H        -1.459022        -1.510989        -0.365212
 H         0.410225         0.979045         1.861233
 H         0.122738         2.110367         0.477777
 H        -2.397694         1.759064         0.444330
