19
Iteration:  3244
 C        -3.915963        -0.429488         1.349340
 C        -2.492607        -0.074167         1.481743
 C        -1.377503        -1.336188         1.620052
 C        -0.038932        -1.258103         0.738780
 C         0.100186         0.108694         0.140165
 O         0.397196         0.137592        -1.050712
 C        -0.367931         1.326452         0.887071
 C        -1.898902         1.231042         1.075272
 O        -2.160291         0.909461         2.500309
 H        -4.261412        -1.514221         1.372679
 H        -4.532638        -0.018688         2.086460
 H        -4.306341        -0.117883         0.349884
 H        -1.019527        -1.513145         2.647767
 H        -1.834895        -2.256189         1.338412
 H         0.753442        -1.533461         1.462847
 H         0.025367        -1.895379        -0.203197
 H         0.073512         1.212591         1.823943
 H        -0.094609         2.283890         0.406548
 H        -2.579429         2.070637         0.773991
