19
Iteration:  3135
 C        -3.920095        -0.217301         1.397371
 C        -2.414858        -0.168322         1.451672
 C        -1.610683        -1.357216         0.971259
 C        -0.017357        -0.890113         1.269330
 C         0.176665         0.143239         0.195535
 O         0.433876        -0.068211        -0.969267
 C        -0.670572         1.422621         0.499437
 C        -1.857355         1.167579         1.322474
 O        -1.868184         0.554695         2.643385
 H        -4.164855        -0.556108         2.485641
 H        -4.120437         0.788778         1.191704
 H        -4.365550        -0.874870         0.574978
 H        -1.712532        -2.345793         1.496213
 H        -1.741657        -1.460348        -0.145729
 H         0.021115        -0.711828         2.363754
 H         0.742701        -1.680372         1.007754
 H        -0.149261         2.209547         0.951099
 H        -1.014824         1.938522        -0.418978
 H        -2.646001         1.966465         1.197561
