19
Iteration:  1466charge 0 multiplicity 1
 C        -3.991404        -0.376750         1.551284
 C        -2.474686        -0.020544         1.671269
 C        -1.448059        -1.229226         1.617076
 C        -0.719832        -1.322353         0.297021
 C         0.103402        -0.070162         0.021897
 O         1.180022         0.062851        -0.547902
 C        -0.589523         1.267045         0.428927
 C        -1.938954         1.280467         1.138993
 O        -2.008620         0.962447         2.565708
 H        -4.341572        -0.991648         2.419640
 H        -4.527570         0.477130         1.440573
 H        -4.075956        -1.006114         0.641314
 H        -0.765258        -0.899125         2.375415
 H        -1.848825        -2.159619         1.943325
 H         0.125637        -2.090717         0.279860
 H        -1.442639        -1.449633        -0.518184
 H         0.308122         1.892587         0.916851
 H        -0.641670         1.759838        -0.569482
 H        -2.681102         2.004637         0.854589
