19
Iteration:  3380
 C        -3.810278        -0.644650         1.579489
 C        -2.388290        -0.158125         1.634615
 C        -1.274702        -1.170444         1.672779
 C        -0.554247        -1.153722         0.215863
 C         0.041220         0.123820        -0.008045
 O         0.914739         0.162499        -0.887308
 C        -0.440326         1.261784         0.905345
 C        -1.988348         1.159143         1.087521
 O        -2.298007         1.025229         2.543538
 H        -4.400844        -0.414379         2.452709
 H        -4.262487         0.006674         0.697787
 H        -3.739548        -1.699624         1.306643
 H        -0.498944        -1.368664         2.402449
 H        -1.760516        -2.187552         1.796206
 H         0.090566        -2.037005         0.203431
 H        -1.345805        -1.399000        -0.555991
 H        -0.209903         1.288797         1.903549
 H        -0.135790         2.155527         0.423377
 H        -2.498086         1.932966         0.590263
