19
Iteration:  1932charge 0 multiplicity 1
 C        -3.980151        -0.206313         2.030197
 C        -2.520069        -0.086543         1.521975
 C        -1.677506        -1.370484         1.222996
 C        -0.582457        -1.363364         0.162034
 C         0.075115         0.047498         0.038964
 O         1.270499         0.233559         0.076139
 C        -0.841684         1.203481        -0.026454
 C        -1.929631         1.256784         1.128951
 O        -1.687177         0.832728         2.455553
 H        -4.009967        -0.773725         3.028244
 H        -4.372098         0.778438         2.132440
 H        -4.598805        -0.782322         1.212257
 H        -1.169264        -1.472576         2.146936
 H        -2.310969        -2.174400         0.958154
 H         0.219414        -2.060135         0.459020
 H        -0.973583        -1.558731        -0.839484
 H        -0.210715         2.177608         0.089914
 H        -1.488604         1.311242        -0.911743
 H        -2.780249         2.006292         1.070374
