19
Iteration:  4384
 C        -3.906793        -0.290515         2.201285
 C        -2.439320        -0.160601         1.708608
 C        -1.820515        -1.420100         1.095781
 C        -0.591923        -1.187955         0.118590
 C         0.091960         0.150338         0.125113
 O         1.265882         0.485990         0.095016
 C        -0.983136         1.143662         0.018556
 C        -2.055941         1.142690         0.990832
 O        -1.465520         0.724820         2.335948
 H        -4.019713        -0.310710         3.276142
 H        -4.670644         0.386602         1.642198
 H        -4.083639        -1.356281         1.917938
 H        -1.609431        -2.152218         1.860497
 H        -2.553279        -1.939877         0.417888
 H         0.241233        -1.930241         0.346938
 H        -0.969509        -1.232344        -0.891565
 H        -0.531370         2.178343         0.067584
 H        -1.208360         0.829504        -1.040598
 H        -2.764743         1.918661         1.201854
