19
Iteration:   894
 C        -4.030298        -0.279112         1.819017
 C        -2.498413        -0.067950         1.590221
 C        -1.894445        -1.347538         0.926060
 C        -0.278213        -1.180932         0.813712
 C         0.127110         0.114448         0.051174
 O         1.119376         0.105972        -0.672112
 C        -0.781661         1.367525         0.328712
 C        -1.958307         1.265945         1.332389
 O        -1.683503         0.634886         2.523612
 H        -4.216516        -1.113461         2.499391
 H        -4.438326         0.549338         2.310551
 H        -4.494785        -0.546915         0.843120
 H        -2.136356        -2.290852         1.525376
 H        -2.257045        -1.527501        -0.119283
 H         0.144986        -1.011244         1.845109
 H         0.195413        -2.052946         0.505957
 H        -0.069474         2.164299         0.627166
 H        -1.117564         1.682553        -0.631250
 H        -2.658597         2.101004         1.411111
