19
Iteration:  3297charge 0 multiplicity 1
 C        -3.799872        -0.517845         1.166318
 C        -2.396716        -0.087695         1.678549
 C        -1.289484        -1.231526         1.757449
 C        -0.303048        -1.305234         0.547011
 C        -0.012368         0.061428        -0.028347
 O         0.647843         0.130065        -1.080413
 C        -0.433089         1.366060         0.887542
 C        -1.927037         1.196051         1.268862
 O        -2.281442         0.998092         2.639304
 H        -4.129650        -1.543690         1.525611
 H        -4.548798         0.140812         1.478977
 H        -3.837017        -0.496348         0.051847
 H        -0.593257        -1.122039         2.657691
 H        -1.760192        -2.169888         1.676816
 H         0.504347        -2.033776         0.855708
 H        -0.870998        -1.744228        -0.326201
 H         0.345315         1.312363         1.772077
 H        -0.226460         2.316189         0.270871
 H        -2.690062         1.808090         0.540285
