19
Iteration:  2591
 C        -3.899729        -0.554306         1.482949
 C        -2.362943        -0.144839         1.659405
 C        -1.316174        -1.261753         1.754474
 C        -0.799826        -1.180294         0.326570
 C         0.085143         0.070073         0.046803
 O         1.018436         0.109017        -0.707872
 C        -0.504139         1.333243         0.675797
 C        -1.940402         1.134008         1.033657
 O        -2.102240         1.047757         2.471630
 H        -3.949587        -1.580342         1.952592
 H        -4.425386         0.154451         2.040976
 H        -4.082951        -0.611647         0.360454
 H        -0.499887        -0.933872         2.433038
 H        -1.781844        -2.230135         2.155751
 H        -0.260609        -2.034160        -0.205799
 H        -1.712183        -1.053310        -0.329856
 H        -0.069694         1.342037         1.697662
 H        -0.161529         2.215967         0.214531
 H        -2.721109         1.758384         0.480164
