19
Iteration:  1539
 C        -3.996551        -0.437202         1.346141
 C        -2.489881        -0.051563         1.533224
 C        -1.334409        -1.098161         1.784721
 C        -0.514501        -1.415300         0.489115
 C         0.052520        -0.075100         0.030722
 O         0.680322         0.170839        -1.014177
 C        -0.209158         1.071536         0.979114
 C        -1.721080         1.155745         1.150246
 O        -2.281548         1.184355         2.438559
 H        -4.260177        -1.047623         2.279772
 H        -4.621463         0.472770         1.179839
 H        -4.045718        -1.099699         0.382963
 H        -0.641305        -0.557730         2.473851
 H        -1.630567        -1.967191         2.504000
 H         0.296351        -1.936935         0.971666
 H        -0.926139        -1.878942        -0.415787
 H         0.257942         1.131107         1.892780
 H         0.135120         1.922170         0.508756
 H        -2.271664         1.773326         0.433183
