19
Iteration:  1786
 C        -3.835544        -0.494530         1.331954
 C        -2.391271        -0.016338         1.640364
 C        -1.399608        -1.193383         1.764981
 C        -0.643404        -1.284338         0.466854
 C         0.089501        -0.010457         0.130791
 O         0.858216        -0.066777        -0.818260
 C        -0.447380         1.363399         0.713090
 C        -1.908695         1.253164         1.071493
 O        -2.132118         1.038426         2.512097
 H        -4.280116        -0.872214         2.244792
 H        -4.363307         0.553501         1.106691
 H        -3.842045        -1.212116         0.508920
 H        -0.736304        -1.053742         2.614113
 H        -1.866661        -2.147004         1.870925
 H        -0.057963        -2.218024         0.225588
 H        -1.282379        -1.353695        -0.423530
 H         0.186740         1.548138         1.631312
 H        -0.294374         2.100145        -0.091164
 H        -2.513994         1.982937         0.555009
