19
Iteration:  2134charge 0 multiplicity 1
 C        -3.873854        -0.264175         2.037016
 C        -2.456766        -0.107360         1.666474
 C        -1.913603        -1.392090         0.969612
 C        -0.480118        -1.270323         0.446585
 C         0.067481         0.100664         0.202168
 O         1.248358         0.228006        -0.120492
 C        -0.877754         1.237754         0.079178
 C        -2.000813         1.170012         1.060579
 O        -1.593224         0.883728         2.412937
 H        -4.134064        -1.015297         2.818470
 H        -4.345349         0.735939         2.351548
 H        -4.376748        -0.649589         1.124873
 H        -1.970335        -2.338478         1.518757
 H        -2.594525        -1.583992         0.113545
 H         0.186735        -1.756398         1.168909
 H        -0.249775        -1.775792        -0.545709
 H        -0.360732         2.142090         0.051243
 H        -1.318095         1.120451        -1.037135
 H        -2.729956         1.929748         1.016008
