19
Iteration:   458
 C        -3.713340        -0.374639         0.975109
 C        -2.436684        -0.086224         1.592417
 C        -1.412991        -1.095929         1.870065
 C        -0.410001        -1.378963         0.599796
 C         0.064840        -0.029998         0.072395
 O         0.368774         0.071762        -1.132124
 C        -0.237087         1.171570         1.012166
 C        -1.747328         1.206095         1.236028
 O        -2.233763         1.092303         2.575951
 H        -4.098945        -1.233538         1.626306
 H        -4.443231         0.345685         1.100113
 H        -3.525913        -0.678184        -0.172707
 H        -0.834131        -0.678968         2.738717
 H        -1.896951        -2.034458         2.240537
 H         0.413903        -2.071259         0.886563
 H        -1.019680        -1.836616        -0.124639
 H         0.268725         1.085062         1.933857
 H         0.140932         2.024654         0.547170
 H        -2.344248         1.801228         0.593856
