19
Iteration:  4770charge 0 multiplicity 1
 C        -3.799797        -0.619806         1.412501
 C        -2.402598        -0.066925         1.590146
 C        -1.258831        -1.104853         1.751133
 C        -0.512764        -1.378017         0.430256
 C         0.114538        -0.066706         0.027479
 O         0.698458         0.168148        -1.011680
 C        -0.412303         1.330495         0.847197
 C        -1.964633         1.272787         1.135113
 O        -2.240498         1.042018         2.548405
 H        -3.920209        -1.571695         0.866278
 H        -4.109112        -0.962719         2.365954
 H        -4.475034         0.139538         0.965042
 H        -0.551154        -0.871522         2.625301
 H        -1.580696        -2.044221         2.172170
 H         0.255202        -2.094215         0.664228
 H        -1.092341        -1.696790        -0.474554
 H        -0.072586         1.428853         1.860990
 H        -0.141233         2.273584         0.201339
 H        -2.681956         1.926494         0.604465
