19
Iteration:   542
 C        -3.887057        -0.504054         1.462880
 C        -2.453836        -0.003882         1.571562
 C        -1.454550        -1.194468         1.675722
 C        -0.621704        -1.248260         0.418335
 C         0.033341         0.053582        -0.044524
 O         0.965195        -0.011902        -0.821726
 C        -0.411517         1.266508         0.716224
 C        -1.818191         1.263152         1.203619
 O        -2.189124         0.997796         2.557036
 H        -4.338020        -0.837246         2.382469
 H        -4.487555         0.341392         0.927553
 H        -3.994399        -1.401842         0.889868
 H        -0.827925        -1.032902         2.547498
 H        -1.962698        -2.129845         1.878192
 H         0.176845        -1.996245         0.395505
 H        -1.333121        -1.595445        -0.437755
 H         0.306917         1.314404         1.631213
 H        -0.146825         2.134363         0.042475
 H        -2.317962         2.125666         0.706121
