19
Iteration:  4363charge 0 multiplicity 1
 C        -3.801995        -0.400244         2.252381
 C        -2.378867        -0.193837         1.644805
 C        -1.865524        -1.390268         0.948980
 C        -0.534509        -1.272380         0.222342
 C         0.038869         0.182440         0.061445
 O         1.225396         0.382313         0.202066
 C        -1.029455         1.304029        -0.171934
 C        -1.941278         1.182121         1.060510
 O        -1.559091         0.796602         2.403387
 H        -3.585386        -0.186070         3.309014
 H        -4.479582         0.407306         1.733713
 H        -4.171895        -1.451629         2.105604
 H        -1.886142        -2.219380         1.695895
 H        -2.702290        -1.701927         0.318687
 H         0.153735        -2.077081         0.645814
 H        -0.650066        -1.427815        -0.859585
 H        -0.458523         2.237987        -0.196535
 H        -1.705465         1.078884        -1.022675
 H        -2.854659         1.828216         1.161927
