19
Iteration:   145charge 0 multiplicity 1
 C        -3.767338         0.015713         2.125918
 C        -2.439285        -0.052576         1.469483
 C        -1.876299        -1.363172         1.113083
 C        -0.687809        -1.368336         0.169345
 C         0.007196        -0.001327         0.201084
 O         1.203976         0.213713         0.374005
 C        -0.880441         1.205205        -0.078784
 C        -1.967598         1.236119         0.958893
 O        -1.470017         0.678188         2.254644
 H        -3.839811        -0.425566         3.174834
 H        -4.103876         0.993457         2.167375
 H        -4.538089        -0.606725         1.668449
 H        -1.813702        -1.863607         2.063232
 H        -2.666538        -1.874335         0.595011
 H         0.053253        -2.258560         0.195146
 H        -1.131459        -1.394528        -0.766406
 H        -0.259631         2.138268         0.089841
 H        -1.301420         1.190087        -1.040703
 H        -2.635397         2.050498         1.085960
