19
Iteration:  2414charge 0 multiplicity 1
 C        -3.930917        -0.382646         1.386570
 C        -2.438156        -0.129973         1.511645
 C        -1.491469        -1.353693         1.519111
 C        -0.184667        -1.291846         0.733263
 C         0.062686         0.079528         0.147395
 O         0.541484         0.080240        -0.953331
 C        -0.347541         1.404135         0.719710
 C        -1.832314         1.223008         1.141172
 O        -2.111600         0.953617         2.542452
 H        -4.138622        -1.465700         1.475124
 H        -4.455796         0.239476         2.238425
 H        -4.432943        -0.131327         0.446778
 H        -1.294423        -1.610578         2.616168
 H        -2.097430        -2.264278         1.163117
 H         0.731238        -1.586624         1.372257
 H        -0.391041        -1.848803        -0.197635
 H         0.103506         1.617389         1.611772
 H        -0.311316         2.149818         0.005125
 H        -2.518521         2.063320         0.704966
