19
Iteration:   756
 C        -3.618798        -0.273227         2.420552
 C        -2.408907        -0.068050         1.581589
 C        -1.964840        -1.329603         0.902551
 C        -0.683409        -1.340903         0.024891
 C         0.102214         0.090813         0.129282
 O         1.156548         0.312017         0.724700
 C        -0.973785         1.178196        -0.345429
 C        -1.953456         1.167303         0.900514
 O        -1.511003         0.852103         2.221067
 H        -3.384841        -0.673771         3.456763
 H        -4.110316         0.760971         2.843991
 H        -4.163282        -1.111419         1.936316
 H        -2.038131        -2.257223         1.434886
 H        -2.848544        -1.363977         0.251582
 H         0.073587        -2.026294         0.429932
 H        -0.952653        -1.704338        -1.083986
 H        -0.441561         2.180023        -0.567539
 H        -1.620747         0.756251        -1.185920
 H        -2.664598         2.012154         0.794886
