19
Iteration:  4304charge 0 multiplicity 1
 C        -3.711419        -0.313749         2.413357
 C        -2.442869        -0.200748         1.620232
 C        -2.118272        -1.397272         0.814984
 C        -0.550193        -1.232419         0.420230
 C         0.098606         0.321356         0.201741
 O         1.287176         0.493036         0.148719
 C        -1.025031         1.269138        -0.109350
 C        -2.016828         1.062064         0.945916
 O        -1.459963         0.551806         2.198787
 H        -3.568272        -0.359565         3.496671
 H        -4.378642         0.480756         2.334664
 H        -4.305423        -1.180321         2.192892
 H        -2.315571        -2.325314         1.207892
 H        -2.721766        -1.297362        -0.160936
 H        -0.009801        -1.509599         1.315912
 H        -0.110054        -1.639535        -0.487748
 H        -0.647541         2.348314        -0.311696
 H        -1.288914         0.990992        -1.158805
 H        -2.530741         1.958307         1.118739
