19
Iteration:   200
 C        -3.927029        -0.160381         2.060714
 C        -2.515728        -0.007638         1.588667
 C        -1.966878        -1.272899         0.948650
 C        -0.466750        -1.305931         0.563025
 C         0.231409        -0.025421         0.179239
 O         1.314336        -0.014376        -0.294317
 C        -0.746087         1.267572         0.131207
 C        -1.998519         1.214151         1.032635
 O        -1.802956         0.897039         2.462153
 H        -3.884908        -0.785405         3.063273
 H        -4.419606         0.784377         2.308187
 H        -4.533630        -0.755807         1.319582
 H        -2.137964        -2.069492         1.624074
 H        -2.565346        -1.442955         0.094878
 H         0.237142        -1.821508         1.345952
 H        -0.329575        -1.939144        -0.280040
 H        -0.099416         2.094778         0.555913
 H        -1.045599         1.473716        -0.863610
 H        -2.569976         2.106336         0.883530
