19
Iteration:  2526
 C        -3.931586        -0.540784         1.479464
 C        -2.450253        -0.102026         1.517292
 C        -1.395574        -1.125693         1.709914
 C        -0.633638        -1.202360         0.421036
 C         0.067927         0.086935         0.038935
 O         0.922649         0.056728        -0.903797
 C        -0.386798         1.372479         0.808513
 C        -1.901223         1.258672         1.182724
 O        -2.118647         0.839012         2.488214
 H        -4.279588        -0.519653         2.563427
 H        -4.501977         0.188593         0.982814
 H        -4.084534        -1.547366         0.869233
 H        -0.740821        -0.946422         2.574553
 H        -1.935113        -2.100083         1.906299
 H         0.239838        -1.974820         0.518677
 H        -1.119287        -1.706541        -0.460254
 H         0.134928         1.494405         1.683799
 H        -0.152014         2.232205         0.239064
 H        -2.719432         1.866924         0.644916
