19
Iteration:  3280charge 0 multiplicity 1
 C        -3.795694        -0.508522         1.227148
 C        -2.410498        -0.139203         1.629992
 C        -1.430869        -1.290501         1.799814
 C        -0.355716        -1.218920         0.655456
 C         0.073077         0.120428         0.021293
 O         0.585054         0.221744        -1.106502
 C        -0.332350         1.292257         0.750604
 C        -1.852501         1.162056         1.214985
 O        -2.278229         0.917410         2.589616
 H        -3.934947        -1.562220         1.427226
 H        -4.519853         0.167009         1.816886
 H        -3.940556        -0.237574         0.174636
 H        -0.990896        -1.138823         2.762786
 H        -2.006758        -2.284798         1.788331
 H         0.662783        -1.416513         0.967702
 H        -0.533977        -2.001317        -0.084974
 H         0.187154         1.343736         1.658353
 H        -0.198557         2.233533         0.287518
 H        -2.265455         1.948288         0.646983
