19
Iteration:   254
 C        -4.062812        -0.066743         1.666980
 C        -2.519891        -0.061972         1.518943
 C        -1.853223        -1.285954         1.063678
 C        -0.333675        -1.021224         1.069651
 C         0.146017         0.037591         0.092673
 O         1.017278        -0.146180        -0.719409
 C        -0.656226         1.362139         0.311174
 C        -1.914164         1.248856         1.211213
 O        -1.696823         0.532286         2.501910
 H        -4.311652        -0.935366         2.405285
 H        -4.313816         0.873289         2.176334
 H        -4.578568        -0.050533         0.678933
 H        -2.127530        -2.092206         1.699525
 H        -2.148993        -1.495630         0.091179
 H         0.113870        -0.812119         2.108261
 H         0.162606        -1.892343         0.726970
 H         0.113575         2.166988         0.598152
 H        -1.041693         1.629868        -0.652277
 H        -2.516937         2.138316         1.209953
