19
Iteration:  2075charge 0 multiplicity 1
 C        -3.827918        -0.150653         2.294935
 C        -2.487627        -0.145388         1.555353
 C        -2.121027        -1.330110         0.825774
 C        -0.606937        -1.168465         0.548889
 C         0.058315         0.168111         0.306145
 O         1.269365         0.408995         0.263749
 C        -0.975852         1.132990        -0.213552
 C        -1.980865         1.111391         0.958861
 O        -1.286386         0.538227         2.141285
 H        -3.452556        -0.379182         3.354554
 H        -4.319585         0.937196         2.199642
 H        -4.510974        -0.951441         1.853116
 H        -2.190477        -2.300658         1.355772
 H        -2.658131        -1.298084        -0.164282
 H        -0.014638        -1.679556         1.343530
 H        -0.389036        -1.576057        -0.434957
 H        -0.588409         2.188495        -0.494533
 H        -1.466312         0.644768        -1.082585
 H        -2.663015         2.125883         1.070038
