19
Iteration:  1979charge 0 multiplicity 1
 C        -3.894390        -0.134207         2.202737
 C        -2.457838        -0.152407         1.598982
 C        -1.905317        -1.463869         1.109196
 C        -0.578330        -1.252892         0.263094
 C         0.041562         0.163329         0.337908
 O         1.266767         0.252525         0.309196
 C        -1.040927         1.225382        -0.134727
 C        -2.059581         1.083048         0.883030
 O        -1.346479         0.821581         2.109478
 H        -3.889552        -1.085689         2.713594
 H        -3.895077         0.760110         2.958409
 H        -4.651224        -0.066716         1.456869
 H        -1.500219        -2.115234         1.882367
 H        -2.597281        -1.847857         0.338359
 H         0.194695        -2.031556         0.514583
 H        -0.760251        -1.262361        -0.883405
 H        -0.496721         2.126181         0.072303
 H        -1.412943         1.088634        -1.249315
 H        -2.810590         1.913112         1.172882
