19
Iteration:  4818charge 0 multiplicity 1
 C        -3.889197        -0.521810         1.398420
 C        -2.409649        -0.158144         1.715153
 C        -1.407918        -1.264809         1.878578
 C        -0.416417        -1.294504         0.563866
 C         0.122607         0.137128        -0.056334
 O         0.647702         0.253272        -1.161600
 C        -0.311361         1.318310         0.841095
 C        -1.819072         1.088880         1.118544
 O        -2.261055         1.029906         2.487634
 H        -4.085215        -1.581366         1.469831
 H        -4.670399        -0.222506         2.207174
 H        -4.114128        -0.230221         0.373191
 H        -0.918485        -1.129924         2.790842
 H        -1.834931        -2.272309         2.125800
 H         0.517916        -1.931432         0.817582
 H        -1.033909        -1.678269        -0.254304
 H         0.374290         1.277632         1.750212
 H        -0.275482         2.194335         0.301192
 H        -2.452514         1.680324         0.450407
