19
Iteration:  2951charge 0 multiplicity 1
 C        -3.834377        -0.210787         2.057614
 C        -2.401703        -0.157026         1.622063
 C        -1.766051        -1.536372         1.089238
 C        -0.550008        -1.336241         0.174144
 C         0.022604         0.142691         0.040395
 O         1.237598         0.414310         0.245599
 C        -0.948394         1.237444        -0.131245
 C        -1.977349         1.143459         1.082964
 O        -1.611403         0.832532         2.432356
 H        -3.909707        -0.871048         2.982551
 H        -4.182555         0.752500         2.285271
 H        -4.641514        -0.665740         1.365782
 H        -1.696122        -2.132302         1.965707
 H        -2.620522        -2.003869         0.518194
 H         0.306455        -1.956544         0.491703
 H        -0.856307        -1.584463        -0.885165
 H        -0.386203         2.268483        -0.125005
 H        -1.720186         1.121521        -0.939854
 H        -2.681874         2.015230         1.075058
