19
Iteration:   413charge 0 multiplicity 1
 C        -3.677327        -0.304013         1.040227
 C        -2.277424        -0.056634         1.468294
 C        -1.508713        -1.331621         1.714097
 C        -0.269506        -1.298230         0.878910
 C        -0.021857         0.016461         0.078449
 O         0.184163         0.018918        -1.117181
 C        -0.208630         1.306194         0.953504
 C        -1.664060         1.239064         1.234698
 O        -2.258895         0.990993         2.552346
 H        -4.283822        -0.606254         1.893685
 H        -4.226791         0.626885         0.711372
 H        -3.790397        -0.940053         0.075126
 H        -1.224474        -1.389228         2.773987
 H        -2.154180        -2.182765         1.476185
 H         0.590962        -1.537029         1.503959
 H        -0.327206        -2.041040         0.035840
 H         0.381851         1.132329         1.821100
 H         0.089473         2.260796         0.504783
 H        -2.224281         1.948582         0.589682
