19
Iteration:  3224
 C        -3.832379        -0.388973         1.361524
 C        -2.335718        -0.130518         1.501479
 C        -1.438272        -1.324687         1.461165
 C        -0.017001        -1.248718         0.868850
 C         0.110005         0.064217         0.108223
 O         0.355739         0.140561        -1.107019
 C        -0.372947         1.333436         0.902020
 C        -1.878345         1.187560         1.179845
 O        -2.273532         0.957245         2.512586
 H        -4.255669        -1.495047         1.459024
 H        -4.374986         0.105956         2.227810
 H        -4.244997        -0.105854         0.348575
 H        -1.342014        -1.769408         2.475381
 H        -2.057953        -2.097951         0.879282
 H         0.832985        -1.186073         1.553294
 H         0.059344        -2.142507         0.173182
 H         0.062580         1.499769         1.845846
 H        -0.240426         2.220312         0.249154
 H        -2.464681         1.788050         0.466113
