19
Iteration:  4256charge 0 multiplicity 1
 C        -3.743422        -0.297481         2.181371
 C        -2.425833        -0.119246         1.569277
 C        -1.898785        -1.314889         0.809703
 C        -0.371804        -1.368083         0.535173
 C        -0.022690         0.131296         0.200650
 O         1.098294         0.564480        -0.045967
 C        -1.074966         1.233728        -0.060010
 C        -1.969437         1.207901         1.105344
 O        -1.467393         0.557416         2.375456
 H        -3.822474        -1.196754         2.796375
 H        -3.977791         0.498160         2.886122
 H        -4.540962        -0.365713         1.452561
 H        -2.155999        -2.339932         1.267215
 H        -2.330599        -1.354086        -0.171204
 H         0.021759        -1.608577         1.512433
 H        -0.079962        -2.047125        -0.307629
 H        -0.552909         2.066551        -0.395590
 H        -1.710043         0.930333        -0.930198
 H        -2.698697         2.079506         1.313593
