19
Iteration:  1983
 C        -3.867331        -0.158213         2.224704
 C        -2.480293        -0.126539         1.615965
 C        -1.905496        -1.439715         1.062164
 C        -0.558872        -1.249960         0.264894
 C         0.030108         0.159767         0.342938
 O         1.262207         0.250101         0.332059
 C        -1.023122         1.184076        -0.157505
 C        -2.077356         1.086818         0.881869
 O        -1.324523         0.836044         2.099179
 H        -3.894001        -1.107250         2.738259
 H        -3.940546         0.596132         2.936541
 H        -4.686130        -0.053746         1.506269
 H        -1.708814        -2.204461         1.908794
 H        -2.658531        -1.809694         0.316136
 H         0.173003        -1.991933         0.507127
 H        -0.793001        -1.173731        -0.786951
 H        -0.645006         2.208805        -0.018236
 H        -1.406166         1.090132        -1.124967
 H        -2.684550         1.878053         1.094420
