19
Iteration:  4061charge 0 multiplicity 1
 C        -3.796508        -0.402263         1.508006
 C        -2.388286        -0.244172         1.473115
 C        -1.580562        -1.489349         1.049242
 C        -0.073286        -1.008433         1.000653
 C        -0.044406         0.258131         0.103705
 O         0.412169         0.050874        -0.992191
 C        -0.522603         1.589646         0.675391
 C        -1.876178         1.168989         1.316237
 O        -1.878890         0.653584         2.642025
 H        -4.166672        -0.626180         2.523510
 H        -4.397631         0.494560         1.145646
 H        -4.220208        -1.008050         0.761243
 H        -1.845221        -2.373476         1.513191
 H        -1.950117        -1.599844        -0.033305
 H         0.225465        -0.661426         1.964222
 H         0.532641        -1.890680         0.711610
 H         0.275341         1.969249         1.338603
 H        -0.735152         2.379548        -0.117256
 H        -2.741666         1.846424         1.052371
