19
Iteration:  1995charge 0 multiplicity 1
 C        -3.781783        -0.242067         2.340316
 C        -2.436279        -0.077781         1.576536
 C        -1.944126        -1.367824         0.973057
 C        -0.587673        -1.241681         0.296026
 C         0.050643         0.104941         0.256103
 O         1.234222         0.290857         0.413992
 C        -0.995159         1.139267        -0.195345
 C        -2.073550         1.166529         0.894248
 O        -1.370638         0.816845         2.129971
 H        -4.008579        -1.238076         2.769756
 H        -3.972001         0.489813         3.032208
 H        -4.540208        -0.116859         1.505498
 H        -2.035542        -2.161989         1.774268
 H        -2.727773        -1.670210         0.231473
 H         0.169908        -1.963633         0.524196
 H        -0.760495        -1.483427        -0.735764
 H        -0.584116         2.188346        -0.344934
 H        -1.253161         0.773014        -1.135346
 H        -2.719192         1.973464         0.787861
