19
Iteration:  3754charge 0 multiplicity 1
 C        -4.016585        -0.444562         2.024609
 C        -2.542204        -0.109910         1.508776
 C        -1.733141        -1.393610         1.143868
 C        -0.295975        -1.237298         0.529990
 C         0.043867         0.208393        -0.015326
 O         1.196209         0.442371        -0.270064
 C        -0.938169         1.367952         0.098704
 C        -2.059463         1.169501         1.198847
 O        -1.561816         0.597860         2.398253
 H        -4.083350        -1.493442         2.403157
 H        -4.306886         0.168879         2.939870
 H        -4.775725        -0.182770         1.185554
 H        -1.601534        -2.014423         2.082970
 H        -2.576371        -2.057290         0.602509
 H         0.518823        -1.480832         1.187878
 H        -0.158016        -1.912674        -0.280080
 H        -0.320931         2.152831         0.484369
 H        -1.429752         1.739501        -0.927523
 H        -2.755480         1.999311         1.177170
