19
Iteration:  1118
 C        -3.984246        -0.260681         1.405520
 C        -2.490343        -0.108029         1.400213
 C        -1.618171        -1.387070         1.238651
 C        -0.088155        -1.042983         1.002924
 C         0.064899         0.164934         0.120183
 O         0.401000         0.007350        -1.049178
 C        -0.311192         1.426012         0.780450
 C        -1.792262         1.189523         1.262767
 O        -1.978287         0.644308         2.568295
 H        -4.101573        -0.904302         2.334112
 H        -4.463458         0.655066         1.435368
 H        -4.367334        -0.839779         0.523469
 H        -1.747056        -2.189414         2.081674
 H        -1.880369        -1.868770         0.259559
 H         0.359460        -0.763752         2.014067
 H         0.432750        -1.880628         0.643519
 H         0.378923         1.511129         1.569997
 H        -0.205011         2.282010         0.025592
 H        -2.417549         2.065962         1.042167
