19
Iteration:  4253charge 0 multiplicity 1
 C        -3.743274        -0.314721         2.162250
 C        -2.405345        -0.120698         1.563296
 C        -1.902092        -1.319228         0.814345
 C        -0.417344        -1.352583         0.542866
 C        -0.014764         0.123679         0.203348
 O         1.108601         0.573280        -0.066410
 C        -1.074345         1.222094        -0.052552
 C        -1.997185         1.203175         1.116222
 O        -1.448891         0.572866         2.388432
 H        -3.839389        -1.229135         2.721152
 H        -4.004605         0.507342         2.947554
 H        -4.555048        -0.308636         1.351743
 H        -2.147758        -2.318128         1.293612
 H        -2.390494        -1.369553        -0.155755
 H         0.062186        -1.652932         1.537348
 H        -0.051067        -2.011487        -0.253690
 H        -0.474260         2.089543        -0.379080
 H        -1.670582         0.914268        -0.901778
 H        -2.668967         2.031590         1.282571
