19
Iteration:   478
 C        -3.754002        -0.372327         1.087094
 C        -2.324437        -0.082763         1.689739
 C        -1.231291        -1.233969         1.902594
 C        -0.575280        -1.341549         0.587628
 C        -0.056251         0.002610        -0.003633
 O         0.528402         0.071321        -1.091927
 C        -0.227760         1.152923         0.984317
 C        -1.675240         1.254772         1.164789
 O        -2.440092         1.118833         2.492963
 H        -4.338647        -1.225449         1.532546
 H        -4.252231         0.593043         1.352586
 H        -3.599969        -0.533614        -0.047830
 H        -0.494532        -1.060190         2.663152
 H        -1.707194        -2.122654         2.196965
 H         0.337017        -1.940855         0.697474
 H        -1.244031        -1.859177        -0.163478
 H         0.205241         0.905684         1.951176
 H         0.211311         2.108181         0.715141
 H        -2.291091         1.828389         0.501253
