19
Iteration:  1989charge 0 multiplicity 1
 C        -3.809790        -0.211111         2.264144
 C        -2.478485        -0.086331         1.605933
 C        -1.901059        -1.407754         1.001336
 C        -0.560133        -1.226160         0.290856
 C         0.039522         0.127292         0.314094
 O         1.240496         0.263776         0.372301
 C        -0.988334         1.151150        -0.165316
 C        -2.086064         1.096552         0.898008
 O        -1.325002         0.834310         2.104053
 H        -4.019328        -1.173051         2.803839
 H        -4.053454         0.579880         3.101529
 H        -4.643492        -0.078107         1.544925
 H        -2.090371        -2.161221         1.754115
 H        -2.733314        -1.800337         0.397042
 H         0.221935        -2.005917         0.484882
 H        -0.850655        -1.268243        -0.818592
 H        -0.761476         2.240434        -0.213174
 H        -1.385408         0.970932        -1.266259
 H        -2.743948         2.088523         0.882451
