19
Iteration:  2782charge 0 multiplicity 1
 C        -3.913842        -0.367889         2.043896
 C        -2.459542        -0.108995         1.562537
 C        -1.675919        -1.410372         1.315063
 C        -0.616203        -1.255603         0.243360
 C         0.022702         0.133595         0.186640
 O         1.247370         0.272673         0.070234
 C        -0.896527         1.343072         0.057692
 C        -2.110134         1.210843         0.941166
 O        -1.550320         0.754708         2.242384
 H        -4.016026        -1.160564         2.767340
 H        -4.233113         0.608170         2.576006
 H        -4.557047        -0.465786         1.208862
 H        -1.170674        -1.656892         2.271092
 H        -2.328232        -2.182065         0.965006
 H         0.269431        -1.881014         0.282403
 H        -0.937917        -1.642188        -0.750367
 H        -0.301112         2.120347         0.337088
 H        -1.236155         1.460780        -1.035159
 H        -2.688454         2.110737         0.963781
