19
Iteration:  4559charge 0 multiplicity 1
 C        -3.907225        -0.553358         1.736620
 C        -2.365472        -0.155404         1.684853
 C        -1.388111        -1.322841         1.574745
 C        -0.702413        -1.172536         0.197009
 C         0.067199         0.102272        -0.068495
 O         1.251549         0.150193        -0.487625
 C        -0.668704         1.336685         0.337220
 C        -1.982273         1.173923         1.179970
 O        -2.086874         1.042988         2.592893
 H        -3.859294        -1.620709         1.686183
 H        -4.343624        -0.414230         2.765409
 H        -4.507624        -0.111571         0.965560
 H        -0.786902        -1.586748         2.449779
 H        -1.974330        -2.294749         1.479893
 H        -0.129205        -2.087072        -0.073311
 H        -1.481671        -1.278331        -0.611051
 H        -0.084029         2.222081         0.665308
 H        -1.176416         1.781821        -0.568929
 H        -2.776270         1.688734         0.644204
