19
Iteration:  4293charge 0 multiplicity 1
 C        -3.789597        -0.257264         2.425701
 C        -2.505348        -0.225187         1.589770
 C        -2.026261        -1.350586         0.713086
 C        -0.499810        -1.125375         0.408627
 C         0.088722         0.270141         0.138769
 O         1.312011         0.480606         0.155959
 C        -1.038201         1.217556        -0.153895
 C        -2.026482         1.053631         1.044261
 O        -1.433638         0.531624         2.251560
 H        -3.407030        -0.492014         3.427483
 H        -4.241650         0.689406         2.398205
 H        -4.447704        -1.028141         2.069374
 H        -2.068040        -2.188696         1.314589
 H        -2.851464        -1.487962        -0.056455
 H         0.028574        -1.365097         1.335700
 H        -0.187648        -1.991274        -0.151684
 H        -0.914717         2.348379        -0.173718
 H        -1.502991         0.773222        -1.065961
 H        -2.727062         1.838227         1.175115
