19
Iteration:  1420charge 0 multiplicity 1
 C        -3.936196        -0.315897         1.854533
 C        -2.393816        -0.105596         1.733317
 C        -1.505545        -1.420263         1.469731
 C        -0.708364        -1.256093         0.058569
 C         0.040881         0.091383         0.033503
 O         1.259824        -0.043973        -0.048331
 C        -0.750054         1.374482         0.146476
 C        -2.017511         1.216841         1.024519
 O        -1.868262         1.038071         2.453112
 H        -4.128062        -1.183944         2.526892
 H        -4.381365         0.593551         2.129070
 H        -4.250242        -0.680619         0.837905
 H        -0.746116        -1.620473         2.204240
 H        -2.180761        -2.305323         1.401855
 H         0.127461        -2.002517         0.069023
 H        -1.407783        -1.296391        -0.807158
 H        -0.136064         2.396762         0.218918
 H        -1.095434         1.402294        -0.904658
 H        -2.666341         2.057408         0.801014
