19
Iteration:   640
 C        -3.896330        -0.400547         1.953073
 C        -2.485256        -0.050295         1.569658
 C        -1.636478        -1.288320         1.278179
 C        -0.618176        -1.257589         0.166945
 C         0.077848         0.055921         0.109644
 O         1.269471        -0.004948        -0.092621
 C        -0.778313         1.316205         0.169241
 C        -2.027097         1.226937         1.056973
 O        -1.765522         0.988545         2.444533
 H        -4.052274        -1.309242         2.526936
 H        -4.194921         0.548998         2.601437
 H        -4.542944        -0.539194         1.142310
 H        -1.208262        -1.534149         2.283949
 H        -2.332317        -2.195627         1.071685
 H         0.151948        -2.016674         0.257163
 H        -1.143344        -1.444328        -0.787614
 H        -0.167842         2.288296         0.350810
 H        -1.319308         1.355544        -0.826797
 H        -2.728865         2.165791         0.898257
