19
Iteration:  2931charge 0 multiplicity 1
 C        -3.771042        -0.155663         2.312441
 C        -2.451511        -0.174526         1.535168
 C        -1.782712        -1.423903         1.035716
 C        -0.506711        -1.295831         0.046793
 C         0.039269         0.094767         0.137862
 O         1.225823         0.417006         0.398732
 C        -0.974466         1.211346        -0.082691
 C        -2.061373         1.110717         0.921669
 O        -1.607674         0.758438         2.270894
 H        -3.659533        -0.651799         3.258319
 H        -4.029967         0.909486         2.337441
 H        -4.536469        -0.717934         1.697059
 H        -1.497279        -2.061399         1.827801
 H        -2.536910        -2.076009         0.580759
 H         0.229992        -1.913105         0.450930
 H        -0.898268        -1.538687        -0.953318
 H        -0.441973         2.190533         0.098375
 H        -1.386231         1.078555        -1.021422
 H        -2.869428         1.859621         0.926734
