19
Iteration:  4704
 C        -3.802785        -0.533717         1.428558
 C        -2.391846        -0.126161         1.697735
 C        -1.260154        -1.154600         1.737376
 C        -0.470707        -1.344398         0.375424
 C         0.047123        -0.052059        -0.013686
 O         0.883469         0.133351        -0.829921
 C        -0.635457         1.310531         0.639046
 C        -2.008337         1.270302         1.166397
 O        -2.186655         1.076312         2.571137
 H        -4.229248        -0.373054         0.372740
 H        -3.799994        -1.575288         1.563008
 H        -4.526343         0.009190         2.051548
 H        -0.560141        -0.753062         2.591797
 H        -1.571075        -2.125620         2.103733
 H         0.211444        -2.160162         0.328726
 H        -1.164854        -1.828616        -0.374927
 H         0.088505         1.401134         1.397306
 H        -0.360469         2.009430        -0.274364
 H        -2.843039         1.896506         0.787725
