19
Iteration:  1234
 C        -3.829604        -0.181736         2.209005
 C        -2.512148        -0.082533         1.604152
 C        -1.984126        -1.291573         0.694517
 C        -0.416820        -1.297323         0.719306
 C         0.115837         0.089607         0.249211
 O         1.261163         0.357935        -0.153878
 C        -0.939977         1.227988         0.049495
 C        -2.095618         1.159642         1.027993
 O        -1.520970         0.555493         2.289532
 H        -4.007210        -1.194397         2.593207
 H        -4.027951         0.650977         2.968812
 H        -4.630624        -0.026988         1.467557
 H        -2.441470        -2.139577         1.102723
 H        -2.369763        -1.184470        -0.325058
 H        -0.022841        -1.517863         1.698121
 H        -0.084131        -2.112935        -0.000812
 H        -0.272541         2.183122         0.330719
 H        -1.248271         1.394681        -1.012388
 H        -2.624515         2.121387         1.149347
