19
Iteration:  4783charge 0 multiplicity 1
 C        -3.762493        -0.591207         1.466017
 C        -2.368243        -0.066965         1.615515
 C        -1.326629        -1.132100         1.706480
 C        -0.399979        -1.359190         0.435597
 C        -0.007990         0.088435        -0.022469
 O         0.702263         0.118929        -1.015563
 C        -0.470898         1.219337         0.912212
 C        -1.921831         1.239252         1.158115
 O        -2.275126         1.062974         2.501356
 H        -3.562687        -1.544299         1.026933
 H        -4.369542        -0.492367         2.406693
 H        -4.358313        -0.004677         0.742287
 H        -0.612734        -0.605285         2.345769
 H        -1.806818        -2.005106         2.156047
 H         0.535613        -1.997464         0.550831
 H        -0.969199        -1.840654        -0.389315
 H         0.127772         1.107422         1.847511
 H        -0.050978         2.133006         0.500087
 H        -2.554679         1.860889         0.547656
