19
Iteration:  1339charge 0 multiplicity 1
 C        -3.658338        -0.141248         2.299175
 C        -2.383436        -0.119801         1.543842
 C        -1.871679        -1.424373         0.985101
 C        -0.644138        -1.252122         0.004862
 C         0.044550         0.133701         0.153978
 O         1.162002         0.210308         0.614489
 C        -1.003704         1.275950        -0.130425
 C        -2.034129         1.143951         0.882035
 O        -1.489430         0.756971         2.215625
 H        -3.382350        -0.421792         3.310289
 H        -4.147367         0.946367         2.440621
 H        -4.214585        -0.917909         1.790558
 H        -1.616170        -2.087029         1.910818
 H        -2.834839        -1.798216         0.503959
 H         0.017405        -2.085525         0.142337
 H        -0.977585        -1.434279        -1.045609
 H        -0.549464         2.184401        -0.112720
 H        -1.440142         1.082490        -1.126477
 H        -2.840440         1.946140         0.847982
