19
Iteration:  1117
 C        -3.992288        -0.270321         1.400990
 C        -2.494684        -0.108496         1.392319
 C        -1.613371        -1.389265         1.242875
 C        -0.079690        -1.040555         1.009211
 C         0.062654         0.161050         0.120110
 O         0.391283         0.006385        -1.058742
 C        -0.296878         1.432141         0.784956
 C        -1.796570         1.192066         1.265326
 O        -1.974011         0.647226         2.570475
 H        -4.102325        -0.919891         2.326442
 H        -4.519757         0.665210         1.431257
 H        -4.359204        -0.821478         0.498402
 H        -1.747890        -2.182291         2.106336
 H        -1.903796        -1.851044         0.246185
 H         0.339399        -0.749437         2.031970
 H         0.456016        -1.902579         0.642231
 H         0.387403         1.517398         1.602220
 H        -0.193777         2.240306         0.054554
 H        -2.383895         2.100930         1.046620
