19
Iteration:  1849charge 0 multiplicity 1
 C        -3.886875        -0.391492         1.761270
 C        -2.484628        -0.053610         1.581589
 C        -1.377481        -1.114813         1.487201
 C        -0.692241        -1.283706         0.077866
 C         0.060018        -0.082059         0.005086
 O         1.240060        -0.007416        -0.354190
 C        -0.676845         1.165907         0.517509
 C        -2.037793         1.222164         1.044693
 O        -2.056424         1.063383         2.477113
 H        -4.029926        -1.058069         2.596780
 H        -4.361650         0.659347         2.123412
 H        -4.440595        -0.695749         0.923314
 H        -0.504006        -0.850955         2.241347
 H        -1.580503        -2.191026         2.055762
 H        -0.006042        -2.184455         0.007041
 H        -1.453562        -1.260432        -0.745030
 H        -0.106594         1.373283         1.386168
 H        -0.408594         2.052835        -0.116923
 H        -2.755208         1.993203         0.637432
