19
Iteration:  3123charge 0 multiplicity 1
 C        -3.959088        -0.217643         1.492065
 C        -2.475519        -0.194567         1.500751
 C        -1.563821        -1.245890         0.969792
 C        -0.095307        -0.888409         1.220754
 C         0.109245         0.181122         0.183275
 O         0.569936        -0.061901        -0.950049
 C        -0.623502         1.413612         0.479394
 C        -1.918650         1.118882         1.265844
 O        -1.794678         0.521003         2.616400
 H        -4.557715        -0.548873         2.467186
 H        -4.541948         0.644223         1.251855
 H        -4.212688        -1.035606         0.749104
 H        -1.887669        -2.253693         1.392781
 H        -1.719099        -1.362563        -0.114409
 H         0.028693        -0.393222         2.241076
 H         0.399482        -1.856704         1.061955
 H         0.037759         1.992215         1.043362
 H        -0.829915         1.772395        -0.523199
 H        -2.663914         1.956599         1.200416
