19
Iteration:  1656
 C        -3.752394        -0.275988         0.918011
 C        -2.380965        -0.050191         1.549500
 C        -1.382556        -1.249435         1.803212
 C        -0.116513        -1.244786         0.875916
 C        -0.008274        -0.003708         0.097722
 O         0.024883        -0.012839        -1.148513
 C        -0.144242         1.083146         1.062909
 C        -1.663318         1.199448         1.144684
 O        -2.310284         1.092249         2.504885
 H        -4.257716        -1.055084         1.358858
 H        -4.312132         0.717544         1.089418
 H        -3.692336        -0.440478        -0.124932
 H        -0.995917        -1.307512         2.808284
 H        -1.893783        -2.149373         1.717587
 H         0.803156        -1.275087         1.503902
 H        -0.260987        -1.917349         0.017300
 H         0.371711         0.945291         2.087733
 H         0.411921         2.004148         0.654824
 H        -2.134782         1.990294         0.525162
