19
Iteration:  3905charge 0 multiplicity 1
 C        -3.959162        -0.434984         1.488457
 C        -2.434074        -0.186226         1.596242
 C        -1.487373        -1.398371         1.163791
 C        -0.027601        -1.043516         0.990002
 C         0.071663         0.195946         0.029385
 O         0.450301         0.214470        -1.154394
 C        -0.437962         1.395165         0.701104
 C        -1.837077         1.097090         1.248527
 O        -2.066463         0.730419         2.676629
 H        -4.303999        -0.926410         2.388989
 H        -4.589402         0.465005         1.336200
 H        -4.250816        -1.208893         0.689258
 H        -1.590105        -2.144000         1.916160
 H        -1.932883        -1.771699         0.221176
 H         0.305190        -0.732983         2.025277
 H         0.609677        -1.876185         0.677801
 H         0.243898         1.714345         1.523867
 H        -0.561004         2.188965        -0.096506
 H        -2.610276         1.954125         1.116798
