19
Iteration:  3676
 C        -3.801075        -0.474642         2.372898
 C        -2.448992        -0.165915         1.542097
 C        -1.789165        -1.360344         1.001752
 C        -0.516548        -1.250412         0.079265
 C         0.059956         0.215741         0.009589
 O         1.190248         0.468165         0.378395
 C        -0.961348         1.280537        -0.104614
 C        -2.064999         1.121017         0.973430
 O        -1.550785         0.745712         2.277853
 H        -3.425366        -0.710293         3.417934
 H        -4.500819         0.326097         2.274490
 H        -4.249731        -1.509741         2.054036
 H        -1.637380        -1.941336         1.928982
 H        -2.713524        -1.867266         0.477323
 H         0.286311        -1.897925         0.411323
 H        -0.781026        -1.601330        -0.906998
 H        -0.492496         2.271637         0.038345
 H        -1.633232         1.388310        -1.065950
 H        -2.654757         2.022063         1.173328
