19
Iteration:  1349charge 0 multiplicity 1
 C        -3.679118        -0.199109         2.346709
 C        -2.467708        -0.118339         1.514928
 C        -1.833896        -1.388084         1.042663
 C        -0.664022        -1.198824         0.002476
 C         0.082092         0.174731         0.064072
 O         1.206557         0.114988         0.594648
 C        -0.905708         1.279436        -0.173207
 C        -2.072125         1.149219         0.906435
 O        -1.568229         0.769703         2.226810
 H        -3.429557        -0.548747         3.374814
 H        -4.147236         0.876080         2.389747
 H        -4.496007        -0.872219         1.989227
 H        -1.383197        -1.937174         1.944118
 H        -2.486542        -2.141857         0.536115
 H         0.158409        -1.864901         0.287101
 H        -1.128010        -1.391391        -0.953068
 H        -0.547565         2.218839        -0.038867
 H        -1.410164         1.328687        -1.127670
 H        -2.695911         2.069573         0.808660
