19
Iteration:  4002charge 0 multiplicity 1
 C        -3.855878        -0.444733         1.385700
 C        -2.383298        -0.151075         1.502175
 C        -1.409037        -1.385940         1.299406
 C        -0.006263        -1.011880         0.883189
 C        -0.010951         0.199418         0.040330
 O         0.287419         0.077806        -1.152479
 C        -0.368122         1.387860         0.849111
 C        -1.871246         1.217909         1.270224
 O        -2.158720         0.738339         2.645091
 H        -4.115153        -1.429484         1.698131
 H        -4.264847         0.292671         2.000252
 H        -4.163854        -0.407440         0.311832
 H        -1.268385        -1.954924         2.262116
 H        -1.683534        -2.071094         0.560113
 H         0.637858        -0.859734         1.803237
 H         0.326404        -1.917755         0.396668
 H         0.298576         1.339748         1.739869
 H        -0.340259         2.386834         0.357821
 H        -2.520715         2.105230         0.988719
