19
Iteration:   515charge 0 multiplicity 1
 C        -3.798318        -0.567059         1.275026
 C        -2.442990         0.010652         1.648180
 C        -1.398983        -1.143627         1.756149
 C        -0.723356        -1.331607         0.430968
 C         0.133886        -0.026662         0.078459
 O         0.757729         0.065118        -0.992834
 C        -0.330282         1.244286         0.936198
 C        -1.828515         1.212688         1.159560
 O        -2.164239         1.136994         2.515944
 H        -4.188606        -1.241827         2.093454
 H        -4.517177         0.140574         1.013628
 H        -3.843935        -1.166093         0.283131
 H        -0.587302        -0.860524         2.497078
 H        -1.849464        -2.141014         2.127047
 H        -0.110393        -2.255882         0.483866
 H        -1.405309        -1.540324        -0.334273
 H         0.042742         1.295941         1.932316
 H         0.049934         2.068915         0.348150
 H        -2.297660         1.977695         0.541984
