19
Iteration:  4462
 C        -3.910128        -0.529537         2.013569
 C        -2.455230        -0.132637         1.673388
 C        -1.620174        -1.385962         1.278734
 C        -0.648377        -1.180494         0.101303
 C         0.129367         0.046324         0.098961
 O         1.301784         0.302561        -0.178204
 C        -0.882922         1.213609         0.275387
 C        -2.120842         1.215320         1.053454
 O        -1.689871         0.998203         2.430404
 H        -3.693564        -1.405847         2.680773
 H        -4.485917         0.330147         2.489741
 H        -4.418452        -0.737549         1.064171
 H        -1.043500        -1.667512         2.184501
 H        -2.196893        -2.263046         1.128661
 H        -0.044701        -2.019148        -0.259645
 H        -1.213907        -1.022865        -0.826031
 H        -0.266622         2.099829         0.452379
 H        -1.189617         1.350800        -0.846410
 H        -2.976779         1.858527         0.755745
