19
Iteration:  3383
 C        -3.823019        -0.621044         1.582643
 C        -2.408916        -0.185197         1.624743
 C        -1.271134        -1.188510         1.682345
 C        -0.573542        -1.168852         0.221683
 C         0.039591         0.120219        -0.045440
 O         0.929877         0.182394        -0.863902
 C        -0.448609         1.257731         0.897550
 C        -1.978835         1.185680         1.079021
 O        -2.284931         1.010627         2.535593
 H        -4.399716        -0.381520         2.523331
 H        -4.297980        -0.046542         0.828224
 H        -3.787734        -1.720964         1.372055
 H        -0.417394        -1.383951         2.386601
 H        -1.787236        -2.162500         1.823650
 H         0.154551        -2.000652         0.270198
 H        -1.226762        -1.379531        -0.570942
 H        -0.122578         1.270274         1.982229
 H        -0.167194         2.224683         0.378102
 H        -2.567378         1.986303         0.518091
