19
Iteration:  4864
 C        -3.759715        -0.506174         1.285767
 C        -2.346068        -0.077948         1.552558
 C        -1.322224        -1.284878         1.738851
 C        -0.352581        -1.337978         0.621544
 C        -0.146237         0.107920        -0.078529
 O         0.584402         0.127924        -1.035863
 C        -0.437924         1.379958         0.785684
 C        -1.832875         1.245087         1.240629
 O        -2.232174         0.937892         2.585527
 H        -4.035315        -1.337686         2.022285
 H        -4.427669         0.307597         1.580125
 H        -3.821483        -0.811054         0.219449
 H        -0.732365        -1.060171         2.577339
 H        -1.699158        -2.243101         2.125474
 H         0.687915        -1.520244         1.006948
 H        -0.710126        -2.048132        -0.125377
 H         0.175359         1.317458         1.711515
 H        -0.100313         2.218450         0.189919
 H        -2.489564         2.100716         0.902035
