19
Iteration:  3861
 C        -3.871998        -0.489721         1.767237
 C        -2.493148        -0.194614         1.388860
 C        -1.612354        -1.396603         0.949770
 C        -0.134639        -1.010294         0.948767
 C         0.054439         0.219510         0.219181
 O         0.626800         0.064759        -0.882894
 C        -0.611970         1.625868         0.553343
 C        -1.916323         1.253971         1.262688
 O        -1.853813         0.574678         2.523197
 H        -3.950592        -0.912621         2.771229
 H        -4.580128         0.305604         1.666109
 H        -4.237363        -1.365830         1.122125
 H        -1.723656        -2.275066         1.568745
 H        -1.963191        -1.760698        -0.056094
 H         0.304584        -0.805946         1.964187
 H         0.440110        -1.773328         0.448636
 H        -0.008190         2.217800         1.273413
 H        -0.781469         2.248800        -0.332658
 H        -2.703830         2.068056         1.020424
