19
Iteration:   954charge 0 multiplicity 1
 C        -3.954124        -0.257538         1.533462
 C        -2.457064        -0.136826         1.540815
 C        -1.597665        -1.392974         1.080061
 C        -0.038361        -1.273650         0.963767
 C         0.138820         0.061557         0.120241
 O         0.499012         0.110873        -1.049563
 C        -0.451448         1.388023         0.754091
 C        -1.899078         1.276701         1.216838
 O        -1.986381         0.792494         2.578200
 H        -4.197012        -0.929182         2.377150
 H        -4.501128         0.719487         1.514634
 H        -4.327615        -0.715956         0.614938
 H        -1.883826        -2.046730         1.913074
 H        -1.960704        -1.841634         0.150661
 H         0.238860        -0.983613         1.978337
 H         0.534306        -2.188282         0.548125
 H         0.036874         1.605600         1.801806
 H        -0.252019         2.178884        -0.089547
 H        -2.656155         2.043878         0.986320
