19
Iteration:  1483
 C        -3.887220        -0.422542         1.499707
 C        -2.435292        -0.092478         1.650880
 C        -1.469268        -1.298469         1.647952
 C        -0.638135        -1.342554         0.314528
 C         0.080004         0.053482         0.009686
 O         1.080732        -0.074123        -0.676523
 C        -0.500077         1.421079         0.571333
 C        -1.905625         1.178320         1.166667
 O        -2.111165         1.141043         2.561556
 H        -4.342588        -0.860080         2.407074
 H        -4.540952         0.584007         1.403803
 H        -4.058122        -1.138921         0.674491
 H        -0.768968        -1.236218         2.547308
 H        -2.173735        -2.204499         1.686964
 H         0.043461        -2.156951         0.408412
 H        -1.228429        -1.556197        -0.605037
 H         0.105431         1.825323         1.286679
 H        -0.661070         2.145394        -0.213698
 H        -2.677937         1.851789         0.695328
