19
Iteration:  3899charge 0 multiplicity 1
 C        -3.971446        -0.434379         1.526812
 C        -2.402353        -0.205660         1.579787
 C        -1.525462        -1.375122         1.149199
 C        -0.004756        -1.048360         1.000987
 C         0.070482         0.167311         0.057269
 O         0.456551         0.243363        -1.138995
 C        -0.481317         1.375857         0.709906
 C        -1.892263         1.107389         1.240949
 O        -2.007391         0.733668         2.628168
 H        -4.266246        -0.870682         2.509837
 H        -4.618097         0.458622         1.239084
 H        -4.031609        -1.147287         0.732328
 H        -1.662611        -2.254545         1.846428
 H        -1.838927        -1.631904         0.069307
 H         0.306996        -0.701294         1.969165
 H         0.463964        -2.043122         0.853056
 H         0.062864         1.772102         1.559513
 H        -0.432294         2.129496        -0.093385
 H        -2.562286         1.894281         1.073655
