19
Iteration:  2438charge 0 multiplicity 1
 C        -3.997342        -0.503208         1.430083
 C        -2.528581        -0.096168         1.517501
 C        -1.619880        -1.225757         1.663819
 C        -0.317123        -1.209442         0.735993
 C         0.228392         0.045126         0.040697
 O         0.677011         0.139852        -1.079435
 C        -0.333300         1.355831         0.772070
 C        -1.809341         1.288173         1.149388
 O        -2.044325         0.825752         2.510327
 H        -4.136906        -1.564407         1.776552
 H        -4.621031         0.196370         1.950630
 H        -4.417421        -0.602100         0.359998
 H        -1.332261        -1.281360         2.730575
 H        -2.111266        -2.220846         1.454172
 H         0.425132        -1.544705         1.459548
 H        -0.583156        -1.897887        -0.079082
 H         0.133877         1.627595         1.726881
 H        -0.343033         2.146399         0.064914
 H        -2.478898         2.123431         0.707944
