19
Iteration:  3925charge 0 multiplicity 1
 C        -3.907728        -0.427729         1.403330
 C        -2.373195        -0.205508         1.498985
 C        -1.516749        -1.405007         1.357645
 C        -0.013648        -0.970275         0.855594
 C         0.033192         0.234242        -0.020136
 O         0.437726         0.054132        -1.170832
 C        -0.419786         1.512656         0.728413
 C        -1.851864         1.216182         1.417170
 O        -2.155814         0.624425         2.669050
 H        -4.202997        -1.134904         2.173741
 H        -4.424354         0.452517         1.484910
 H        -4.074740        -0.831278         0.393823
 H        -1.452831        -1.975729         2.290734
 H        -1.837091        -1.962633         0.576015
 H         0.646216        -0.767275         1.755701
 H         0.291037        -1.911384         0.430466
 H         0.305409         1.775143         1.578146
 H        -0.404054         2.325851         0.029069
 H        -2.644888         1.993719         1.187683
