19
Iteration:  2640charge 0 multiplicity 1
 C        -4.007317        -0.487922         1.523448
 C        -2.537619        -0.044010         1.663402
 C        -1.474921        -1.217317         1.598142
 C        -0.498916        -1.371093         0.383332
 C         0.128315        -0.023494        -0.069881
 O         1.161187         0.237769        -0.744012
 C        -0.554579         1.239877         0.472625
 C        -1.959931         1.267234         1.249189
 O        -2.131647         0.959329         2.670562
 H        -4.092611        -1.352315         2.131790
 H        -4.550732         0.406509         2.008858
 H        -4.166377        -0.594461         0.469657
 H        -0.856347        -1.285820         2.489812
 H        -2.056270        -2.099256         1.551730
 H         0.281250        -2.083818         0.560302
 H        -0.964719        -1.863945        -0.485052
 H         0.230171         1.745312         0.956169
 H        -0.698477         1.867244        -0.452497
 H        -2.601043         2.039381         0.884087
