19
Iteration:  1373charge 0 multiplicity 1
 C        -3.859593        -0.315496         2.357780
 C        -2.500482        -0.080234         1.514185
 C        -1.701537        -1.362367         1.180647
 C        -0.707949        -1.304539        -0.062828
 C         0.050375         0.089396         0.206753
 O         1.249719         0.152731         0.378534
 C        -0.772770         1.301256        -0.030751
 C        -2.012403         1.250640         0.859159
 O        -1.648039         0.843132         2.184918
 H        -3.597919        -0.946533         3.175541
 H        -4.398346         0.712549         2.738358
 H        -4.582819        -0.897202         1.795043
 H        -1.030000        -1.629539         2.073558
 H        -2.353484        -2.293730         1.000093
 H        -0.049881        -2.114308        -0.114027
 H        -1.398650        -1.111261        -0.926356
 H        -0.165391         2.123686         0.168078
 H        -1.153682         1.437421        -1.044829
 H        -2.684376         2.125532         0.616624
