19
Iteration:  1659charge 0 multiplicity 1
 C        -3.768344        -0.275943         0.939014
 C        -2.369894        -0.068179         1.540668
 C        -1.392290        -1.242117         1.785169
 C        -0.109068        -1.255431         0.895713
 C        -0.001121        -0.018298         0.089521
 O         0.026511         0.017460        -1.141170
 C        -0.128354         1.113197         1.066829
 C        -1.687583         1.185047         1.145582
 O        -2.286316         1.111959         2.488569
 H        -4.279280        -1.127315         1.430433
 H        -4.308144         0.591979         1.041063
 H        -3.617279        -0.392133        -0.176636
 H        -1.062916        -1.302882         2.852931
 H        -2.045813        -2.213062         1.733322
 H         0.779297        -1.393501         1.448176
 H        -0.300447        -2.011808         0.104899
 H         0.363786         0.876969         1.994500
 H         0.318725         1.988453         0.708240
 H        -2.115087         1.942731         0.518030
