19
Iteration:  2327charge 0 multiplicity 1
 C        -3.790103        -0.274035         1.444982
 C        -2.379055        -0.088693         1.419661
 C        -1.633155        -1.341045         1.142742
 C        -0.150366        -1.099135         1.066098
 C         0.001110         0.101413         0.167109
 O         0.473912        -0.072760        -0.947790
 C        -0.490420         1.434403         0.622424
 C        -1.875833         1.285920         1.242630
 O        -1.949227         0.658158         2.570579
 H        -3.967215        -0.796674         2.389766
 H        -4.308036         0.789074         1.373240
 H        -4.079528        -0.980555         0.683536
 H        -1.942397        -2.021113         2.008972
 H        -1.926894        -1.656761         0.082377
 H         0.323045        -0.951438         2.062993
 H         0.328490        -1.947315         0.563432
 H         0.231680         1.944719         1.427182
 H        -0.463932         2.128228        -0.181802
 H        -2.653081         2.168776         1.126127
