19
Iteration:   335
 C        -3.899624        -0.322713         1.286787
 C        -2.445083        -0.054053         1.447778
 C        -1.643433        -1.376747         1.332918
 C        -0.180046        -1.183353         1.031756
 C         0.032857         0.073213         0.135560
 O         0.319596        -0.171025        -0.993227
 C        -0.197870         1.441058         0.794226
 C        -1.724976         1.288196         1.205106
 O        -1.995235         0.919107         2.544575
 H        -4.226856        -1.130186         1.905809
 H        -4.553353         0.616614         1.481764
 H        -4.060834        -0.731342         0.273909
 H        -1.935294        -2.020133         2.164756
 H        -2.134213        -1.828485         0.474361
 H         0.430165        -1.068376         1.895263
 H         0.252885        -2.005631         0.328411
 H         0.333067         1.667875         1.680577
 H        -0.039602         2.332216         0.122661
 H        -2.437994         2.087934         0.811296
