19
Iteration:  5000
 C        -3.774058        -0.596198         1.505058
 C        -2.372197        -0.084505         1.584684
 C        -1.259760        -1.203681         1.780529
 C        -0.637972        -1.208701         0.370258
 C         0.026977         0.054338        -0.044209
 O         0.873133         0.132881        -0.914604
 C        -0.508564         1.342526         0.746219
 C        -1.912560         1.225183         1.069779
 O        -2.236994         0.957732         2.596567
 H        -3.914387        -1.171447         2.396967
 H        -4.493762         0.300156         1.474071
 H        -4.103722        -1.297066         0.743577
 H        -0.571901        -1.114275         2.687912
 H        -1.615560        -2.204776         1.917586
 H         0.072067        -1.998668         0.264294
 H        -1.405160        -1.564463        -0.341996
 H        -0.027262         1.437452         1.690911
 H        -0.063000         2.278946         0.247301
 H        -2.670700         1.828876         0.628043
