19
Iteration:  2617charge 0 multiplicity 1
 C        -3.898449        -0.538978         1.563753
 C        -2.453415        -0.095779         1.565153
 C        -1.391885        -1.185101         1.576345
 C        -0.579672        -1.258957         0.325058
 C         0.064541         0.089513        -0.010175
 O         1.059150        -0.019073        -0.705184
 C        -0.521933         1.393248         0.624330
 C        -1.940906         1.229104         1.188458
 O        -2.208395         0.961138         2.583691
 H        -3.886332        -1.529390         1.934408
 H        -4.416076         0.157660         2.257989
 H        -4.125498        -0.457362         0.521991
 H        -0.658316        -0.913314         2.333284
 H        -1.857360        -2.057077         1.933323
 H         0.249161        -1.889982         0.301869
 H        -1.163445        -1.671641        -0.530389
 H         0.146090         1.753840         1.306772
 H        -0.566238         2.215045        -0.154207
 H        -2.542837         2.004637         0.821505
