19
Iteration:  1072charge 0 multiplicity 1
 C        -3.728412        -0.330817         1.094562
 C        -2.273820        -0.058047         1.461374
 C        -1.522590        -1.326001         1.193826
 C        -0.007793        -1.109162         1.117068
 C        -0.063416         0.058360         0.194260
 O        -0.061522        -0.071999        -1.033596
 C        -0.241197         1.409881         0.858898
 C        -1.724522         1.263451         1.297101
 O        -2.064051         0.783070         2.637687
 H        -3.957158        -1.394484         1.337113
 H        -4.405143         0.479138         1.577741
 H        -3.909126        -0.224582         0.001738
 H        -1.908606        -2.106629         2.014377
 H        -1.685674        -1.852651         0.188388
 H         0.629395        -0.919183         2.006763
 H         0.560750        -1.812762         0.407768
 H         0.270227         1.713843         1.814800
 H        -0.225276         2.129454         0.128130
 H        -2.514910         1.994553         1.027845
