19
Iteration:  1446
 C        -3.939241        -0.317941         1.658123
 C        -2.456529        -0.051501         1.570162
 C        -1.464470        -1.112121         1.580263
 C        -0.718502        -1.294528         0.226308
 C         0.090596        -0.059980         0.002326
 O         1.259721         0.064463        -0.314872
 C        -0.770724         1.232871         0.267624
 C        -1.923720         1.181913         1.108125
 O        -1.936893         0.890560         2.584089
 H        -4.068362        -1.026837         2.471691
 H        -4.501189         0.657152         1.731304
 H        -4.303666        -0.789642         0.752905
 H        -0.730161        -1.027355         2.391309
 H        -1.937439        -2.044949         1.797898
 H        -0.145689        -2.264450         0.131454
 H        -1.526802        -1.181723        -0.491582
 H        -0.061555         2.074342         0.649257
 H        -0.998198         1.606658        -0.788435
 H        -2.549416         2.051006         0.883497
