19
Iteration:  1070charge 0 multiplicity 1
 C        -3.722404        -0.332875         1.076882
 C        -2.263270        -0.069346         1.470758
 C        -1.513916        -1.354357         1.188269
 C        -0.002264        -1.120658         1.113658
 C        -0.065312         0.063117         0.190730
 O        -0.073656        -0.082003        -1.020096
 C        -0.261143         1.436678         0.862587
 C        -1.719988         1.274914         1.304397
 O        -2.068628         0.791789         2.641199
 H        -3.984513        -1.356237         1.338679
 H        -4.387226         0.528567         1.579313
 H        -3.877155        -0.122772        -0.000298
 H        -1.866220        -2.072767         2.013411
 H        -1.671030        -1.858445         0.175645
 H         0.621840        -0.931067         1.980355
 H         0.543990        -1.846280         0.375981
 H         0.322440         1.699985         1.810045
 H        -0.227051         2.121789         0.109238
 H        -2.515647         1.985788         0.969138
