19
Iteration:   382
 C        -4.011982        -0.157547         1.098838
 C        -2.457206        -0.100781         1.521302
 C        -1.428444        -1.339397         1.593227
 C         0.066945        -1.295394         0.966869
 C         0.050996        -0.052661         0.096602
 O         0.151063         0.082457        -1.136679
 C        -0.280037         1.202103         0.975302
 C        -1.673194         1.218913         1.180848
 O        -2.146937         1.004068         2.478762
 H        -4.679198        -0.553027         1.902239
 H        -4.203992         0.784056         0.880143
 H        -4.098351        -0.878387         0.212021
 H        -1.186976        -1.654450         2.686647
 H        -2.140814        -2.179871         1.182639
 H         0.773013        -1.268805         1.829440
 H         0.183373        -2.201242         0.410540
 H         0.386425         1.081025         1.817688
 H         0.043756         2.119857         0.538179
 H        -2.241813         1.950713         0.631412
