19
Iteration:  3421
 C        -3.983374        -0.548547         1.639941
 C        -2.459289        -0.134993         1.631568
 C        -1.370319        -1.259532         1.616608
 C        -0.555366        -1.249174         0.316503
 C         0.140721         0.073485        -0.021535
 O         1.082048         0.336555        -0.766479
 C        -0.585780         1.280078         0.642224
 C        -2.010380         1.135185         1.134043
 O        -2.100825         0.897312         2.543792
 H        -4.234620        -0.581496         2.671923
 H        -4.652821         0.270969         1.188694
 H        -4.260268        -1.484454         1.193566
 H        -0.768770        -1.074358         2.491840
 H        -1.852218        -2.245661         1.734475
 H         0.304239        -1.925269         0.312082
 H        -1.030107        -1.490419        -0.699051
 H         0.207567         1.709113         1.345113
 H        -0.640613         2.005285        -0.154376
 H        -2.747955         1.807137         0.742000
