19
Iteration:  4312charge 0 multiplicity 1
 C        -3.713431        -0.345568         2.429426
 C        -2.493609        -0.183568         1.598844
 C        -2.056600        -1.439021         0.796240
 C        -0.554240        -1.253071         0.458871
 C         0.049088         0.247930         0.226160
 O         1.267324         0.505044         0.150278
 C        -0.962285         1.298907        -0.130991
 C        -2.056271         1.156203         0.924601
 O        -1.418145         0.595687         2.202994
 H        -3.439108        -0.356059         3.533613
 H        -4.408139         0.416075         2.160649
 H        -4.128353        -1.301258         2.177510
 H        -2.386691        -2.463161         1.233699
 H        -2.577336        -1.294407        -0.149756
 H         0.029732        -1.823105         1.151239
 H        -0.401892        -1.641550        -0.608957
 H        -0.494251         2.249629        -0.098531
 H        -1.427853         1.077766        -1.127153
 H        -2.737180         2.032071         1.230885
