19
Iteration:  2979charge 0 multiplicity 1
 C        -3.941947        -0.341592         1.860297
 C        -2.459403        -0.075758         1.636494
 C        -1.751025        -1.287700         1.165070
 C        -0.526869        -1.250977         0.342427
 C         0.068817         0.143831         0.135781
 O         1.239099         0.287204        -0.047382
 C        -0.965383         1.220976         0.042051
 C        -2.038680         1.219156         1.126641
 O        -1.507913         0.712629         2.394973
 H        -3.953996        -1.292871         2.442042
 H        -4.441428         0.535923         2.383549
 H        -4.378969        -0.536177         0.896610
 H        -1.572022        -1.742469         2.232867
 H        -2.438925        -2.087882         0.890882
 H         0.307535        -1.840039         0.837009
 H        -0.850184        -1.461735        -0.664045
 H        -0.484636         2.130427        -0.016433
 H        -1.680114         0.948059        -0.750417
 H        -2.665185         2.103132         1.274469
