19
Iteration:  2750
 C        -3.885548        -0.394768         2.045006
 C        -2.500985        -0.134125         1.638195
 C        -1.691857        -1.414660         1.239824
 C        -0.498032        -1.294689         0.267303
 C         0.232295         0.090049         0.102816
 O         1.363138         0.209859        -0.241032
 C        -0.806128         1.326567         0.130434
 C        -2.033382         1.187467         1.022869
 O        -1.976452         0.967292         2.496116
 H        -4.071337        -0.992882         2.958141
 H        -4.261081         0.692696         2.337373
 H        -4.622389        -0.756019         1.357742
 H        -1.441972        -2.138012         2.032551
 H        -2.520475        -1.852808         0.698920
 H         0.313948        -2.012517         0.563803
 H        -0.880450        -1.498861        -0.780098
 H        -0.291321         2.189042         0.355338
 H        -1.270639         1.514232        -0.872603
 H        -2.777900         1.919994         0.703096
