19
Iteration:  4805charge 0 multiplicity 1
 C        -3.876940        -0.596712         1.420636
 C        -2.413133        -0.159496         1.679536
 C        -1.313717        -1.248628         1.881286
 C        -0.476655        -1.196395         0.527393
 C        -0.004746         0.082761        -0.099331
 O         0.700694         0.218013        -1.094890
 C        -0.309764         1.242062         0.819166
 C        -1.809943         1.168007         1.152930
 O        -2.304689         1.066455         2.494243
 H        -3.943580        -1.647344         1.276146
 H        -4.438316        -0.013593         2.239691
 H        -4.350690        -0.094850         0.557069
 H        -0.628914        -1.076457         2.736562
 H        -1.904082        -2.145180         1.716298
 H         0.532998        -1.725387         0.640839
 H        -0.795360        -1.982069        -0.194312
 H         0.129338         1.126306         1.868809
 H         0.130982         2.152880         0.460143
 H        -2.493284         1.651759         0.492799
