19
Iteration:  2671
 C        -3.943716        -0.316746         1.556746
 C        -2.448241        -0.217596         1.603731
 C        -1.535344        -1.409440         1.545438
 C        -0.503300        -1.232517         0.484374
 C         0.121465         0.138180         0.113724
 O         1.031022         0.162218        -0.630452
 C        -0.659823         1.418464         0.411377
 C        -2.013054         1.114439         1.129597
 O        -1.884464         0.879516         2.546004
 H        -4.330767        -0.714496         2.487926
 H        -4.315751         0.771675         1.526389
 H        -4.358138        -0.860832         0.616125
 H        -0.992114        -1.523788         2.510144
 H        -2.144798        -2.288938         1.501987
 H         0.359273        -1.805789         0.664399
 H        -0.962628        -1.584575        -0.526516
 H        -0.062363         1.994577         0.976239
 H        -0.774952         1.989111        -0.562672
 H        -2.832304         1.700969         0.800734
