19
Iteration:   577charge 0 multiplicity 1
 C        -4.012077        -0.241399         1.637167
 C        -2.512699        -0.123973         1.709815
 C        -1.433262        -1.324522         1.563089
 C        -0.549325        -1.333057         0.302825
 C         0.131480         0.021817         0.083315
 O         1.107651         0.090896        -0.665630
 C        -0.587421         1.269524         0.519448
 C        -1.930488         1.173669         1.040622
 O        -2.063643         0.972171         2.551558
 H        -4.487480        -0.323665         2.641028
 H        -4.389756         0.691043         1.337512
 H        -4.225386        -1.019264         0.809171
 H        -0.807220        -1.212820         2.438615
 H        -1.859241        -2.262147         1.615236
 H         0.208558        -2.177373         0.269366
 H        -1.215635        -1.364294        -0.629185
 H         0.071925         1.748516         1.312230
 H        -0.532745         1.968286        -0.272654
 H        -2.601005         1.919294         0.809090
