19
Iteration:  1634
 C        -3.672758        -0.213509         0.868578
 C        -2.301097        -0.049215         1.466010
 C        -1.359796        -1.195455         1.818244
 C        -0.149459        -1.367337         0.884737
 C        -0.065003        -0.056862         0.040402
 O         0.048297        -0.075513        -1.182425
 C        -0.175123         1.260910         1.019469
 C        -1.701012         1.296851         1.320110
 O        -2.356831         0.960660         2.556361
 H        -4.202147        -0.914160         1.399208
 H        -4.216841         0.787093         0.751327
 H        -3.507971        -0.559322        -0.105077
 H        -1.004727        -1.005779         2.828587
 H        -1.969964        -2.024941         1.976921
 H         0.796359        -1.366600         1.435411
 H        -0.351070        -2.229540         0.203682
 H         0.551185         0.995132         1.884627
 H         0.279170         2.259734         0.668193
 H        -2.253809         2.069811         0.726439
