19
Iteration:  1058charge 0 multiplicity 1
 C        -3.695606        -0.241633         1.015810
 C        -2.289202        -0.135222         1.471380
 C        -1.432454        -1.464789         1.248024
 C         0.051592        -1.168931         1.043667
 C         0.003096         0.126061         0.213211
 O        -0.142350        -0.112875        -0.992362
 C        -0.337478         1.506217         0.856218
 C        -1.762382         1.303946         1.346132
 O        -2.060263         0.804534         2.627122
 H        -4.236848        -1.173109         1.149235
 H        -4.346781         0.501799         1.660987
 H        -3.736992        -0.066379        -0.079264
 H        -1.599463        -2.270024         1.994163
 H        -2.004520        -1.766189         0.324175
 H         0.417612        -1.078511         2.061119
 H         0.516981        -2.118990         0.597530
 H         0.513973         1.651095         1.563314
 H        -0.239634         2.338965         0.169613
 H        -2.390424         2.081881         0.846841
