19
Iteration:  3203
 C        -3.923286        -0.457610         1.270713
 C        -2.362309        -0.141106         1.619930
 C        -1.533160        -1.452454         1.439352
 C        -0.049138        -1.097037         1.013327
 C        -0.006771         0.131713         0.063334
 O         0.368959         0.139462        -1.128902
 C        -0.293571         1.340701         0.788026
 C        -1.815598         1.210925         1.189389
 O        -2.146796         0.918342         2.538572
 H        -4.032936        -1.562724         1.543975
 H        -4.525493         0.111180         2.046116
 H        -4.200293        -0.324724         0.196694
 H        -1.690685        -2.017064         2.360197
 H        -2.062393        -2.013037         0.558637
 H         0.580243        -0.815084         1.852152
 H         0.401337        -1.981415         0.497454
 H         0.272400         1.369711         1.702283
 H         0.019054         2.179107         0.137054
 H        -2.396922         1.996095         0.706460
