19
Iteration:   201
 C        -3.928174        -0.166200         2.057729
 C        -2.511555        -0.007125         1.580573
 C        -1.966073        -1.278662         0.949536
 C        -0.460302        -1.309697         0.569592
 C         0.223586        -0.024594         0.183395
 O         1.313748        -0.010487        -0.307878
 C        -0.741873         1.262366         0.139904
 C        -2.004274         1.217631         1.039164
 O        -1.803990         0.902205         2.470837
 H        -3.880488        -0.768300         3.025271
 H        -4.429558         0.807578         2.300322
 H        -4.501699        -0.707919         1.312697
 H        -2.152543        -2.095297         1.618955
 H        -2.574171        -1.426810         0.050960
 H         0.228765        -1.796709         1.353289
 H        -0.341068        -1.976357        -0.248038
 H        -0.101577         2.076259         0.538905
 H        -1.007076         1.457601        -0.886928
 H        -2.574642         2.118591         0.875963
