19
Iteration:  2959charge 0 multiplicity 1
 C        -3.895949        -0.259995         2.013940
 C        -2.413179        -0.135295         1.611953
 C        -1.780757        -1.456429         1.155191
 C        -0.518932        -1.297513         0.184460
 C         0.047758         0.112200         0.108310
 O         1.218212         0.373180         0.158611
 C        -1.010448         1.250203        -0.126027
 C        -1.945584         1.197728         1.074830
 O        -1.579617         0.801494         2.478626
 H        -4.017740        -1.024762         2.857065
 H        -4.248480         0.715058         2.256998
 H        -4.254250        -0.644227         1.058136
 H        -1.579626        -2.301916         1.924186
 H        -2.553727        -1.987654         0.527263
 H         0.391417        -1.887996         0.583368
 H        -0.916301        -1.635134        -0.781730
 H        -0.421674         2.194533        -0.113302
 H        -1.587959         1.106806        -1.155295
 H        -2.660470         2.032578         1.181435
