19
Iteration:  3909charge 0 multiplicity 1
 C        -3.935634        -0.456985         1.452047
 C        -2.463832        -0.179779         1.593067
 C        -1.477350        -1.405760         1.192009
 C        -0.037116        -1.026425         0.984680
 C         0.093431         0.196871        -0.009472
 O         0.439706         0.183926        -1.144992
 C        -0.419806         1.424809         0.699573
 C        -1.818953         1.132583         1.272252
 O        -2.100552         0.712340         2.705735
 H        -4.339387        -0.962487         2.373809
 H        -4.545234         0.558444         1.399633
 H        -4.351738        -1.137955         0.703117
 H        -1.543220        -2.179890         2.006540
 H        -2.040493        -1.924151         0.265390
 H         0.341993        -0.755707         1.947573
 H         0.685944        -1.709159         0.484010
 H         0.338513         1.653636         1.416111
 H        -0.624501         2.267313        -0.032644
 H        -2.515807         1.906591         1.021677
