19
Iteration:   827
 C        -3.930728        -0.155663         2.267099
 C        -2.544423        -0.104038         1.527447
 C        -2.021649        -1.333035         0.874224
 C        -0.482332        -1.162122         0.523892
 C         0.064739         0.113993         0.114138
 O         1.261649         0.363451         0.102981
 C        -0.932823         1.237756        -0.163574
 C        -1.943141         1.117426         1.053325
 O        -1.429342         0.513417         2.294577
 H        -3.988310        -1.019639         2.937270
 H        -4.005010         0.669255         2.859678
 H        -4.700680        -0.302052         1.505028
 H        -2.025775        -2.266693         1.496326
 H        -2.655640        -1.561516        -0.035171
 H         0.123322        -1.325175         1.449288
 H        -0.114660        -1.838210        -0.148494
 H        -0.412017         2.124366        -0.127275
 H        -1.457031         1.123205        -1.072163
 H        -2.431612         2.075351         1.206028
