19
Iteration:  4301charge 0 multiplicity 1
 C        -3.733076        -0.301734         2.409755
 C        -2.433194        -0.205328         1.613886
 C        -2.111911        -1.360856         0.782776
 C        -0.543089        -1.202887         0.418591
 C         0.113790         0.323198         0.190401
 O         1.288675         0.487056         0.149934
 C        -1.032739         1.264130        -0.121212
 C        -2.009438         1.026704         0.980685
 O        -1.465775         0.540516         2.203704
 H        -3.532518        -0.363651         3.531657
 H        -4.356095         0.561946         2.396193
 H        -4.361044        -1.125648         2.162895
 H        -2.279409        -2.398762         1.299538
 H        -2.790673        -1.361052        -0.080150
 H         0.028120        -1.411034         1.286032
 H        -0.039571        -1.799767        -0.426789
 H        -0.784336         2.283426        -0.273025
 H        -1.297225         0.912363        -1.157845
 H        -2.590304         2.027635         1.095749
