19
Iteration:  2730
 C        -4.033015        -0.389446         1.993125
 C        -2.566215        -0.068050         1.673429
 C        -1.723945        -1.331122         1.250597
 C        -0.421963        -1.297521         0.301579
 C         0.246194         0.056156         0.044482
 O         1.331355         0.270250        -0.393803
 C        -0.698632         1.204696         0.303819
 C        -2.060393         1.167579         1.077709
 O        -1.926411         0.978867         2.467615
 H        -4.056501        -0.956411         3.017771
 H        -4.966966         0.349705         2.072530
 H        -4.351911        -1.209756         1.342588
 H        -1.373970        -1.724548         2.197844
 H        -2.454872        -2.008968         0.718493
 H         0.494077        -2.034513         0.509320
 H        -0.785686        -1.693008        -0.675374
 H         0.045692         2.031704         0.619638
 H        -1.003524         1.452589        -0.705222
 H        -2.774046         1.996349         0.771204
