19
Iteration:   995
 C        -3.833818        -0.342398         1.126270
 C        -2.348223        -0.071237         1.472658
 C        -1.607638        -1.407755         1.312017
 C        -0.029717        -1.113173         1.030504
 C         0.035536         0.134402         0.071009
 O         0.075625        -0.053876        -1.146039
 C        -0.218904         1.479908         0.861256
 C        -1.715317         1.309758         1.354740
 O        -2.063510         0.710051         2.677381
 H        -4.238721        -1.010749         1.867798
 H        -4.497262         0.605448         1.010700
 H        -3.798764        -0.695825         0.119468
 H        -1.473428        -1.983348         2.320373
 H        -2.046495        -2.015014         0.439004
 H         0.260589        -0.868339         2.048462
 H         0.513601        -2.060676         0.605774
 H         0.557741         1.495237         1.714227
 H        -0.294924         2.326452         0.298068
 H        -2.450587         2.109718         1.100128
