19
Iteration:  1370charge 0 multiplicity 1
 C        -3.878841        -0.294135         2.378736
 C        -2.514917        -0.104150         1.504655
 C        -1.698020        -1.368962         1.159247
 C        -0.690701        -1.279253        -0.055930
 C         0.039196         0.089718         0.195462
 O         1.240271         0.141683         0.405067
 C        -0.784403         1.321456        -0.061680
 C        -2.002430         1.244128         0.869152
 O        -1.641414         0.833991         2.184616
 H        -3.549996        -0.904905         3.279369
 H        -4.293931         0.691455         2.759670
 H        -4.568055        -0.963161         1.830519
 H        -1.044110        -1.614189         2.038661
 H        -2.376083        -2.204555         0.945915
 H        -0.011988        -2.179333        -0.070208
 H        -1.281304        -1.110884        -0.929776
 H        -0.127406         2.145290         0.070033
 H        -1.126156         1.423911        -1.097828
 H        -2.683792         2.084232         0.659987
