19
Iteration:  3862charge 0 multiplicity 1
 C        -3.871493        -0.485324         1.762768
 C        -2.488641        -0.198225         1.389925
 C        -1.602413        -1.388806         0.952769
 C        -0.125579        -1.015924         0.950440
 C         0.048537         0.217254         0.218044
 O         0.618601         0.067604        -0.882223
 C        -0.611886         1.619603         0.560653
 C        -1.922704         1.254800         1.255177
 O        -1.851770         0.577904         2.525812
 H        -3.954402        -0.918492         2.761370
 H        -4.613894         0.335861         1.653382
 H        -4.213697        -1.381800         1.123594
 H        -1.726484        -2.277544         1.558391
 H        -1.985269        -1.797306        -0.071489
 H         0.301332        -0.819819         1.955912
 H         0.422786        -1.781541         0.452392
 H        -0.037376         2.187122         1.282559
 H        -0.757909         2.280453        -0.342219
 H        -2.681889         2.079963         1.020873
