19
Iteration:  2423charge 0 multiplicity 1
 C        -3.970919        -0.431251         1.417407
 C        -2.489013        -0.045515         1.515128
 C        -1.540490        -1.298488         1.554215
 C        -0.247677        -1.278000         0.752279
 C         0.161716         0.117466         0.161438
 O         0.562133         0.092948        -1.013481
 C        -0.321670         1.407143         0.740674
 C        -1.845619         1.176331         1.118860
 O        -2.091002         0.876895         2.518453
 H        -3.979133        -1.501804         1.583893
 H        -4.680548         0.099035         2.230814
 H        -4.243348        -0.207476         0.417479
 H        -1.300284        -1.332584         2.658519
 H        -2.163207        -2.179102         1.261945
 H         0.657219        -1.848107         1.251407
 H        -0.261956        -1.913193        -0.164515
 H         0.247115         1.752318         1.560476
 H        -0.139996         2.108420        -0.071053
 H        -2.508082         2.019561         0.837738
