19
Iteration:  3167charge 0 multiplicity 1
 C        -3.865717        -0.357726         1.290465
 C        -2.421786        -0.096532         1.430148
 C        -1.546907        -1.325243         1.228122
 C        -0.004842        -0.981133         1.141713
 C         0.035554         0.146219         0.138536
 O         0.353497        -0.079050        -1.021476
 C        -0.490442         1.461492         0.630112
 C        -1.848023         1.311610         1.306024
 O        -1.953007         0.589939         2.606670
 H        -4.248150        -1.186972         2.057590
 H        -4.536485         0.475863         1.437862
 H        -4.284450        -0.738923         0.307901
 H        -1.663459        -2.050026         2.089544
 H        -1.898117        -1.902080         0.365602
 H         0.561030        -0.793906         2.101378
 H         0.539844        -1.801968         0.606915
 H         0.166505         1.860298         1.375092
 H        -0.581650         2.221457        -0.149896
 H        -2.634718         2.109328         1.231932
