19
Iteration:  2880charge 0 multiplicity 1
 C        -3.580734        -0.425179         2.386545
 C        -2.387072        -0.073092         1.511809
 C        -1.894147        -1.436532         1.034576
 C        -0.678583        -1.232506         0.128871
 C         0.006557         0.150774         0.169226
 O         1.091735         0.310886         0.641032
 C        -0.899535         1.318612        -0.251044
 C        -2.052147         1.176433         0.756046
 O        -1.532025         0.825687         2.156648
 H        -3.046190        -0.949743         3.177197
 H        -4.180178         0.518137         2.785763
 H        -4.323359        -1.111418         2.022697
 H        -1.504602        -2.132203         1.927218
 H        -2.717105        -1.983373         0.566815
 H         0.090168        -2.014615         0.299772
 H        -1.089184        -1.325361        -0.904896
 H        -0.425021         2.215020         0.002619
 H        -1.043016         1.143463        -1.458201
 H        -2.732646         2.006514         0.787864
