19
Iteration:  1545
 C        -3.946131        -0.440173         1.315114
 C        -2.473049        -0.056975         1.596236
 C        -1.327544        -1.059025         1.767020
 C        -0.496051        -1.414347         0.524108
 C         0.067252        -0.082152         0.035468
 O         0.602562         0.160680        -1.013536
 C        -0.197963         1.064511         0.963151
 C        -1.718472         1.167139         1.158193
 O        -2.334020         1.162851         2.416154
 H        -4.342457        -0.967757         2.137218
 H        -4.526509         0.525227         1.090063
 H        -4.032698        -0.955272         0.412912
 H        -0.633964        -0.615992         2.488263
 H        -1.610902        -1.925996         2.312894
 H         0.428363        -1.949920         0.897915
 H        -0.857195        -1.993003        -0.346540
 H         0.415999         0.836354         1.954622
 H         0.268766         2.056052         0.530526
 H        -2.192864         1.958306         0.530385
