19
Iteration:  1116charge 0 multiplicity 1
 C        -3.999686        -0.281263         1.396606
 C        -2.497627        -0.109518         1.385183
 C        -1.608666        -1.391954         1.246237
 C        -0.071904        -1.037797         1.017518
 C         0.060901         0.155991         0.119023
 O         0.381590         0.005794        -1.068013
 C        -0.283960         1.437630         0.788637
 C        -1.800076         1.195681         1.267838
 O        -1.970081         0.650242         2.572466
 H        -4.110213        -0.928642         2.310604
 H        -4.578584         0.681026         1.431286
 H        -4.348315        -0.802033         0.478872
 H        -1.748187        -2.160711         2.116577
 H        -1.927622        -1.833453         0.242485
 H         0.317037        -0.739620         2.040620
 H         0.481006        -1.927793         0.637743
 H         0.398566         1.528851         1.643919
 H        -0.184444         2.201488         0.085016
 H        -2.352483         2.133067         1.052032
