19
Iteration:  3699charge 0 multiplicity 1
 C        -3.749845        -0.359686         2.305225
 C        -2.442472        -0.166001         1.546226
 C        -1.721700        -1.468804         0.892872
 C        -0.465934        -1.268235         0.143557
 C         0.092079         0.217152         0.267282
 O         1.264067         0.434209         0.112951
 C        -1.026221         1.200828         0.009846
 C        -2.189178         1.193906         1.048590
 O        -1.643712         0.801395         2.349509
 H        -3.567370        -0.962614         3.235335
 H        -4.318287         0.561547         2.391843
 H        -4.326077        -1.128964         1.633071
 H        -1.531453        -2.193068         1.732060
 H        -2.658828        -1.843028         0.357880
 H         0.333252        -1.966293         0.333149
 H        -0.666956        -1.315605        -0.932284
 H        -0.628891         2.193831        -0.003326
 H        -1.412540         1.019551        -1.095647
 H        -2.946801         1.970459         1.185074
