19
Iteration:  1241
 C        -3.854895        -0.192460         2.252157
 C        -2.509040        -0.128762         1.571766
 C        -2.027612        -1.272245         0.699136
 C        -0.472038        -1.342562         0.683975
 C         0.164785         0.079421         0.257151
 O         1.270021         0.417016        -0.080449
 C        -0.942944         1.208834         0.019009
 C        -2.113251         1.197192         1.015370
 O        -1.459576         0.574633         2.257636
 H        -4.071191        -1.108665         2.725951
 H        -3.796560         0.674167         3.015980
 H        -4.504493         0.006665         1.425024
 H        -2.543739        -2.227408         1.093904
 H        -2.390057        -1.253835        -0.359590
 H         0.050037        -1.606319         1.606540
 H        -0.038682        -2.159043         0.034965
 H        -0.528006         2.159191         0.256521
 H        -1.306793         1.171404        -1.093196
 H        -2.612267         2.165745         1.263640
