19
Iteration:  3674
 C        -3.796178        -0.478034         2.374635
 C        -2.458546        -0.166369         1.533737
 C        -1.777986        -1.370519         1.001729
 C        -0.533199        -1.255492         0.089651
 C         0.043063         0.227903        -0.003148
 O         1.188267         0.467240         0.397366
 C        -0.959950         1.285671        -0.134230
 C        -2.054111         1.117964         0.969406
 O        -1.542042         0.739708         2.284759
 H        -3.434215        -0.686375         3.409931
 H        -4.541379         0.302167         2.285553
 H        -4.197009        -1.460926         2.063407
 H        -1.594931        -1.955509         1.892677
 H        -2.708074        -1.829433         0.502547
 H         0.299715        -1.889546         0.427059
 H        -0.843304        -1.571071        -0.871068
 H        -0.496956         2.316107         0.070564
 H        -1.565201         1.409302        -1.072773
 H        -2.652406         2.013383         1.192205
