19
Iteration:  3397charge 0 multiplicity 1
 C        -3.909124        -0.596135         1.620206
 C        -2.397038        -0.128618         1.630564
 C        -1.322602        -1.285398         1.615977
 C        -0.606131        -1.278885         0.295109
 C         0.033200         0.137269        -0.047909
 O         1.007758         0.290288        -0.815424
 C        -0.480333         1.306571         0.775805
 C        -1.930022         1.172514         1.146433
 O        -2.236744         0.964320         2.474179
 H        -4.209638        -0.362200         2.653150
 H        -4.559231        -0.076258         0.954485
 H        -4.080282        -1.666543         1.464561
 H        -0.729419        -0.857335         2.433302
 H        -1.645212        -2.278741         1.911317
 H         0.273665        -1.932097         0.210144
 H        -1.309666        -1.659103        -0.488354
 H         0.235319         1.092576         1.692262
 H        -0.130337         2.302835         0.404513
 H        -2.707128         1.731279         0.557262
