19
Iteration:  1248charge 0 multiplicity 1
 C        -3.860263        -0.185939         2.296040
 C        -2.504672        -0.153963         1.496286
 C        -2.059462        -1.299269         0.716245
 C        -0.498190        -1.366589         0.623804
 C         0.128027         0.092273         0.227949
 O         1.295451         0.452251         0.026758
 C        -0.983319         1.180096        -0.009639
 C        -2.053473         1.206999         1.035611
 O        -1.407051         0.612284         2.225503
 H        -4.159694        -1.099620         2.969623
 H        -3.794999         0.563492         2.988628
 H        -4.673180         0.045259         1.510678
 H        -2.342370        -2.307846         1.072574
 H        -2.436444        -1.150347        -0.301653
 H        -0.086130        -1.627919         1.674525
 H        -0.138528        -2.060509        -0.084932
 H        -0.529842         2.202996        -0.046617
 H        -1.250679         0.958972        -0.992940
 H        -2.657411         2.043821         1.325948
