19
Iteration:  4519
 C        -3.944016        -0.445471         1.837895
 C        -2.426596        -0.158905         1.624682
 C        -1.308088        -1.245787         1.488662
 C        -0.683706        -1.223628         0.115422
 C        -0.026594         0.113921         0.025765
 O         1.193206         0.135972        -0.275719
 C        -0.837757         1.372253         0.339766
 C        -2.058739         1.113696         1.088265
 O        -1.811571         0.905074         2.445171
 H        -4.211983        -1.600632         1.760921
 H        -4.293070        -0.074720         2.791881
 H        -4.413715        -0.101029         0.884949
 H        -0.546427        -0.967333         2.276915
 H        -1.740433        -2.171821         1.617077
 H         0.158543        -1.845380         0.059047
 H        -1.444108        -1.513977        -0.622062
 H        -0.189630         1.928941         0.939654
 H        -0.904334         1.913887        -0.663206
 H        -2.944526         1.747974         0.786451
