19
Iteration:  1826charge 0 multiplicity 1
 C        -3.948080        -0.525925         1.667477
 C        -2.459636        -0.036110         1.732509
 C        -1.422473        -1.160744         1.583986
 C        -0.791366        -1.298666         0.184647
 C         0.096976        -0.057785        -0.107578
 O         1.254326        -0.021068        -0.536778
 C        -0.434960         1.304810         0.590807
 C        -1.935063         1.221282         1.052675
 O        -2.189700         1.155464         2.512019
 H        -4.134133        -1.367233         2.353516
 H        -4.673638         0.301841         1.946535
 H        -4.214764        -0.796844         0.656620
 H        -0.618722        -1.120410         2.421566
 H        -1.798213        -2.259927         1.890173
 H        -0.182709        -2.225564         0.080706
 H        -1.686507        -1.346150        -0.517704
 H         0.143084         1.552918         1.449062
 H        -0.264144         2.146568        -0.144426
 H        -2.725875         1.892881         0.585023
