19
Iteration:  4486charge 0 multiplicity 1
 C        -3.882677        -0.483519         2.010954
 C        -2.433333        -0.133721         1.648338
 C        -1.488717        -1.310991         1.391583
 C        -0.719557        -1.234833         0.078871
 C         0.118591         0.127372         0.038912
 O         1.306699         0.193868        -0.221007
 C        -0.777985         1.384835         0.152330
 C        -2.000353         1.170601         1.038083
 O        -1.973038         0.876586         2.548050
 H        -3.697752        -1.620650         2.217774
 H        -4.265771         0.065792         2.870743
 H        -4.512849        -0.262480         1.132914
 H        -0.846009        -1.505909         2.315639
 H        -2.066729        -2.174678         1.397584
 H        -0.028744        -1.982921        -0.145703
 H        -1.371261        -1.334706        -0.795237
 H        -0.209725         2.218150         0.416536
 H        -1.160396         1.639263        -0.891943
 H        -2.817992         1.882749         0.734903
