19
Iteration:  3994
 C        -3.773897        -0.420526         1.342808
 C        -2.356749        -0.219287         1.566850
 C        -1.451724        -1.423998         1.378265
 C        -0.058301        -1.059620         0.874631
 C         0.025380         0.196862         0.056567
 O         0.273046         0.126168        -1.157147
 C        -0.356537         1.436415         0.777794
 C        -1.884546         1.142862         1.285856
 O        -2.181730         0.765924         2.657111
 H        -3.992148        -1.431585         1.575636
 H        -4.353357         0.345835         1.976692
 H        -3.878511        -0.124163         0.298624
 H        -1.462977        -1.953605         2.270537
 H        -1.964218        -1.983970         0.556844
 H         0.542056        -0.871905         1.764320
 H         0.525394        -1.690269         0.191876
 H         0.275478         1.458636         1.646688
 H        -0.164871         2.478000         0.259564
 H        -2.604373         1.944394         0.834062
