19
Iteration:  2101charge 0 multiplicity 1
 C        -3.873205        -0.109668         2.314291
 C        -2.566884        -0.060080         1.480852
 C        -1.932187        -1.350082         0.845385
 C        -0.402957        -1.379200         0.452377
 C         0.097190         0.047946         0.065138
 O         1.274211         0.375791         0.188271
 C        -0.957012         1.223770        -0.163153
 C        -1.997866         1.259542         1.063205
 O        -1.562729         0.569543         2.331422
 H        -3.525694        -0.400176         3.304488
 H        -4.373378         0.913757         2.294921
 H        -4.542499        -0.808908         1.833977
 H        -2.053072        -2.163452         1.578658
 H        -2.506728        -1.708028        -0.034343
 H         0.164433        -1.553633         1.360035
 H        -0.169554        -2.095239        -0.394552
 H        -0.433381         2.106617        -0.278630
 H        -1.707101         1.087153        -1.086265
 H        -2.478534         2.192220         1.203375
