19
Iteration:  3068charge 0 multiplicity 1
 C        -3.955067        -0.434401         1.821915
 C        -2.483975        -0.090122         1.573981
 C        -1.769414        -1.334221         1.142163
 C        -0.267437        -1.213019         0.721223
 C         0.118573         0.116430         0.108682
 O         1.024318         0.184213        -0.736237
 C        -0.585388         1.355511         0.499817
 C        -1.929703         1.259192         1.079008
 O        -1.976244         0.782317         2.488595
 H        -3.984336        -1.217579         2.686569
 H        -4.536812         0.437266         1.993354
 H        -4.616853        -0.951622         1.090447
 H        -1.949277        -2.125254         1.957271
 H        -2.392968        -1.669846         0.286792
 H         0.442663        -1.317904         1.639595
 H        -0.015719        -2.122663         0.201663
 H         0.128629         1.876848         1.052008
 H        -0.584098         1.922856        -0.422692
 H        -2.648530         2.078328         0.887088
