19
Iteration:  2643charge 0 multiplicity 1
 C        -4.021295        -0.466635         1.529476
 C        -2.529840        -0.048813         1.678749
 C        -1.468946        -1.217374         1.590134
 C        -0.488188        -1.363138         0.392072
 C         0.132378        -0.022487        -0.058384
 O         1.160026         0.251639        -0.745016
 C        -0.578277         1.219449         0.467029
 C        -1.967593         1.249865         1.231866
 O        -2.111811         0.948429         2.655007
 H        -4.152467        -1.373943         2.167141
 H        -4.589817         0.422268         1.919226
 H        -4.066869        -0.567074         0.474624
 H        -0.903761        -1.343631         2.522343
 H        -2.162816        -2.106114         1.542147
 H         0.354826        -2.132580         0.530645
 H        -1.024901        -1.847254        -0.405292
 H         0.301253         1.855895         1.013160
 H        -0.736577         1.829060        -0.417362
 H        -2.590363         2.142915         0.903768
