19
Iteration:  1929charge 0 multiplicity 1
 C        -3.987784        -0.237769         2.013731
 C        -2.514384        -0.070371         1.549484
 C        -1.692350        -1.348239         1.222026
 C        -0.581679        -1.354794         0.161160
 C         0.072432         0.056688         0.043871
 O         1.292495         0.208959         0.053937
 C        -0.844357         1.218654         0.008272
 C        -1.965843         1.249292         1.133715
 O        -1.683172         0.853459         2.452331
 H        -4.063315        -0.735998         3.007787
 H        -4.399163         0.760448         2.047938
 H        -4.506535        -0.833109         1.190565
 H        -1.105221        -1.536026         2.149149
 H        -2.275274        -2.253592         0.997769
 H         0.190514        -2.106334         0.315667
 H        -0.942343        -1.573937        -0.827553
 H        -0.210034         2.145001         0.027261
 H        -1.469190         1.174250        -0.848422
 H        -2.640820         2.086326         1.050871
