19
Iteration:  2205charge 0 multiplicity 1
 C        -4.031638        -0.114735         1.750075
 C        -2.486701        -0.168606         1.611760
 C        -1.752738        -1.440396         1.250878
 C        -0.257296        -1.277120         0.659630
 C         0.151478         0.078518         0.048210
 O         1.148543         0.167710        -0.635352
 C        -0.741438         1.317055         0.344479
 C        -2.019552         1.193385         1.160477
 O        -1.871488         0.788300         2.520003
 H        -4.450585        -1.124656         1.880428
 H        -4.197141         0.504024         2.650462
 H        -4.568807         0.185852         0.868939
 H        -1.660028        -2.064933         2.193844
 H        -2.305169        -2.085547         0.519724
 H         0.563783        -1.449390         1.407649
 H        -0.126620        -1.995841        -0.152484
 H        -0.054282         2.155833         0.908862
 H        -0.990682         1.833844        -0.601200
 H        -2.839056         1.967472         1.041110
