19
Iteration:   315
 C        -3.979501        -0.242389         1.320225
 C        -2.440196        -0.016598         1.526554
 C        -1.651400        -1.308410         1.171692
 C        -0.102457        -1.177854         1.142061
 C         0.137931         0.011624         0.134947
 O         0.448481        -0.138732        -1.009926
 C        -0.423953         1.308091         0.652243
 C        -1.826009         1.296285         1.228600
 O        -1.906187         0.869451         2.618544
 H        -4.355941        -1.107918         1.844296
 H        -4.608737         0.565198         1.648601
 H        -4.199610        -0.386783         0.222463
 H        -1.932995        -2.096371         1.962958
 H        -2.034936        -1.673057         0.126984
 H         0.204848        -0.918685         2.139070
 H         0.386290        -2.149972         0.790734
 H         0.265053         1.671388         1.384753
 H        -0.378562         2.038213        -0.212704
 H        -2.466963         2.192707         1.011441
