19
Iteration:  3343charge 0 multiplicity 1
 C        -3.762911        -0.706401         1.291852
 C        -2.361320        -0.132871         1.665308
 C        -1.266642        -1.181000         1.862298
 C        -0.734887        -1.278812         0.375190
 C         0.004388         0.140781        -0.043076
 O         0.804921         0.263171        -0.946701
 C        -0.338528         1.292370         0.840217
 C        -1.786757         1.166888         1.173108
 O        -2.306706         0.999679         2.557744
 H        -4.403374        -0.977440         2.163993
 H        -4.308376         0.026470         0.715020
 H        -3.732544        -1.610165         0.665520
 H        -0.731045        -0.790589         2.732841
 H        -1.769688        -2.102154         2.038308
 H         0.112742        -1.939998         0.132723
 H        -1.700031        -1.615118        -0.163669
 H         0.351004         1.393361         1.736880
 H        -0.163788         2.191547         0.197547
 H        -2.540617         1.901837         0.797088
