19
Iteration:  3724
 C        -3.828412        -0.402798         2.174196
 C        -2.461942        -0.214442         1.603629
 C        -1.783759        -1.456440         1.055217
 C        -0.475107        -1.181963         0.337169
 C         0.071829         0.255064         0.116764
 O         1.281552         0.442119        -0.066986
 C        -0.935176         1.306622         0.037573
 C        -2.072567         1.107928         1.073284
 O        -1.674011         0.720858         2.367312
 H        -3.911813        -1.268281         2.787915
 H        -4.085283         0.597871         2.676997
 H        -4.504600        -0.539222         1.352007
 H        -1.536782        -2.317378         1.733886
 H        -2.599715        -1.761590         0.478737
 H         0.396696        -1.721812         0.749127
 H        -0.581376        -1.593123        -0.740515
 H        -0.551702         2.312950         0.177626
 H        -1.376837         1.304936        -0.972346
 H        -2.985249         1.701991         0.971986
