19
Iteration:  1552charge 0 multiplicity 1
 C        -3.852678        -0.399549         1.265605
 C        -2.440984        -0.040366         1.633184
 C        -1.346376        -1.078203         1.789193
 C        -0.449617        -1.387855         0.567091
 C         0.062626        -0.069116         0.043669
 O         0.542420         0.132606        -1.053098
 C        -0.172154         1.089818         0.982071
 C        -1.737937         1.216765         1.133567
 O        -2.375875         1.118907         2.427412
 H        -4.504848        -0.950293         2.081574
 H        -4.379329         0.468576         1.167798
 H        -3.987342        -1.070675         0.315964
 H        -0.673431        -0.673363         2.524256
 H        -1.752643        -2.065029         2.105442
 H         0.473218        -2.019917         0.775466
 H        -0.970376        -2.060452        -0.136280
 H         0.313974         0.704589         1.874024
 H         0.259901         1.956703         0.582662
 H        -2.088594         2.003632         0.510153
