19
Iteration:  1886
 C        -3.920889        -0.388502         1.838628
 C        -2.428821        -0.132859         1.640664
 C        -1.605913        -1.421841         1.496469
 C        -0.755112        -1.165773         0.174031
 C         0.063313         0.075728         0.049632
 O         1.280899         0.018520        -0.174286
 C        -0.661413         1.384054         0.206308
 C        -1.919643         1.181879         1.009459
 O        -1.882575         0.993577         2.441417
 H        -4.062434        -0.830156         2.873611
 H        -4.481530         0.561083         1.795586
 H        -4.393517        -1.150918         1.091697
 H        -0.993186        -1.450705         2.384744
 H        -2.224727        -2.283716         1.296258
 H        -0.106286        -2.000046        -0.072189
 H        -1.527096        -1.037604        -0.581229
 H        -0.074015         2.264155         0.681600
 H        -0.945766         1.713459        -0.772738
 H        -2.665467         1.911151         0.838153
