19
Iteration:  3379charge 0 multiplicity 1
 C        -3.806253        -0.651635         1.574485
 C        -2.380502        -0.145022         1.641096
 C        -1.276609        -1.168724         1.665959
 C        -0.551776        -1.152765         0.217811
 C         0.045190         0.125856         0.005044
 O         0.909048         0.157098        -0.895227
 C        -0.440039         1.263110         0.903287
 C        -1.988807         1.148788         1.093475
 O        -2.302302         1.030144         2.544643
 H        -4.396975        -0.431553         2.433812
 H        -4.247834        -0.001115         0.672364
 H        -3.738527        -1.690601         1.283206
 H        -0.526790        -1.332863         2.421867
 H        -1.748637        -2.184650         1.776473
 H         0.078320        -2.043006         0.172313
 H        -1.388047        -1.402113        -0.549651
 H        -0.210046         1.287280         1.912725
 H        -0.121046         2.147329         0.437097
 H        -2.496023         1.915292         0.606483
