19
Iteration:  2634
 C        -3.943883        -0.488804         1.524106
 C        -2.509705        -0.044970         1.622986
 C        -1.488755        -1.215942         1.599328
 C        -0.527515        -1.358161         0.339303
 C         0.135340        -0.006504        -0.092958
 O         1.134120         0.175184        -0.726456
 C        -0.553773         1.288381         0.471785
 C        -1.916834         1.274274         1.275527
 O        -2.177668         0.980733         2.686871
 H        -4.094291        -1.489839         2.078289
 H        -4.567539         0.191801         2.072162
 H        -4.473901        -0.696351         0.508240
 H        -0.813977        -1.060108         2.483118
 H        -1.931665        -2.296568         1.669941
 H         0.304377        -2.058540         0.756522
 H        -0.913062        -1.769161        -0.618212
 H         0.360193         1.743752         1.154747
 H        -0.639390         1.905320        -0.398857
 H        -2.735480         1.949335         0.826792
