19
Iteration:   748
 C        -3.627817        -0.288491         2.432185
 C        -2.404453        -0.068864         1.575473
 C        -1.991346        -1.346298         0.914660
 C        -0.729474        -1.347919         0.014177
 C         0.105316         0.125308         0.080282
 O         1.127175         0.326091         0.742345
 C        -0.933236         1.156710        -0.339278
 C        -1.900802         1.148645         0.916747
 O        -1.490638         0.878278         2.230248
 H        -3.141814        -0.737759         3.276976
 H        -4.353458         0.595955         2.441281
 H        -4.282912        -1.008824         2.000260
 H        -1.834268        -2.135737         1.674762
 H        -2.883141        -1.670002         0.250705
 H        -0.036398        -2.043295         0.373160
 H        -1.015153        -1.659219        -0.963622
 H        -0.669140         2.115880        -0.440686
 H        -1.447997         0.959756        -1.285136
 H        -2.572220         2.058178         0.792170
