19
Iteration:  2932charge 0 multiplicity 1
 C        -3.777412        -0.160179         2.305986
 C        -2.445050        -0.180583         1.534002
 C        -1.792167        -1.424734         1.037057
 C        -0.506025        -1.300676         0.052197
 C         0.042663         0.094148         0.123588
 O         1.222777         0.420617         0.394139
 C        -0.976335         1.216910        -0.073479
 C        -2.047507         1.114709         0.927235
 O        -1.612400         0.762826         2.278856
 H        -3.667201        -0.633533         3.238941
 H        -4.015402         0.941840         2.334102
 H        -4.509252        -0.704130         1.679193
 H        -1.466423        -2.089828         1.817284
 H        -2.533956        -2.074366         0.596471
 H         0.218333        -1.920349         0.454788
 H        -0.892403        -1.545817        -0.938522
 H        -0.466241         2.174012         0.067472
 H        -1.379312         1.064491        -1.006905
 H        -2.870842         1.827125         0.910814
