19
Iteration:   325
 C        -3.969398        -0.310002         1.274207
 C        -2.435300        -0.031398         1.492132
 C        -1.710438        -1.382397         1.242033
 C        -0.111612        -1.116471         1.074826
 C         0.071615        -0.023205         0.193961
 O         0.390678        -0.160442        -1.032581
 C        -0.292944         1.429812         0.723360
 C        -1.797684         1.301439         1.236895
 O        -1.928069         0.928318         2.606967
 H        -4.182199        -1.101176         1.930506
 H        -4.603939         0.595348         1.572328
 H        -4.186746        -0.545443         0.195965
 H        -1.759137        -2.203532         2.014299
 H        -2.023548        -1.855197         0.237070
 H         0.434310        -1.089319         1.975926
 H         0.266488        -2.087211         0.506456
 H         0.247060         1.619081         1.591368
 H        -0.041311         2.090551        -0.167487
 H        -2.482195         2.157210         0.877554
