19
Iteration:  3137charge 0 multiplicity 1
 C        -3.908603        -0.222731         1.395993
 C        -2.410700        -0.174988         1.448685
 C        -1.594379        -1.367682         0.978412
 C        -0.010024        -0.914180         1.268879
 C         0.159708         0.154250         0.194368
 O         0.421846        -0.073511        -0.969924
 C        -0.660407         1.423774         0.506132
 C        -1.848488         1.186925         1.328017
 O        -1.884224         0.561795         2.640379
 H        -4.160889        -0.583346         2.383749
 H        -4.164657         0.811483         1.142125
 H        -4.422499        -0.812566         0.601107
 H        -1.729435        -2.310885         1.509871
 H        -1.761301        -1.512076        -0.178252
 H         0.072245        -0.715521         2.312900
 H         0.789676        -1.684397         1.047453
 H        -0.151276         2.291825         0.939729
 H        -1.044496         1.966086        -0.408718
 H        -2.625997         1.974978         1.252411
