19
Iteration:  4563
 C        -3.930959        -0.549835         1.738144
 C        -2.395769        -0.156413         1.721590
 C        -1.390684        -1.320337         1.559457
 C        -0.657019        -1.159211         0.192381
 C         0.080017         0.116982        -0.090262
 O         1.235233         0.096632        -0.496473
 C        -0.664066         1.376683         0.359778
 C        -2.003623         1.145858         1.166813
 O        -2.089841         1.043321         2.610570
 H        -3.914973        -1.705255         1.629569
 H        -4.199695        -0.431022         2.758955
 H        -4.524719        -0.146581         0.900338
 H        -0.707160        -1.450342         2.449044
 H        -1.937603        -2.196242         1.446015
 H        -0.011494        -1.975862        -0.021473
 H        -1.379097        -1.232717        -0.630382
 H        -0.025567         2.193586         0.610503
 H        -1.165375         1.775055        -0.615576
 H        -2.767608         1.777457         0.664651
