19
Iteration:  4016
 C        -3.980038        -0.498515         1.404347
 C        -2.426258        -0.132045         1.429712
 C        -1.444886        -1.285178         1.299552
 C         0.105368        -1.058125         0.950495
 C         0.046252         0.117295         0.050648
 O         0.291331         0.098588        -1.206445
 C        -0.443063         1.396086         0.905062
 C        -1.853069         1.261369         1.341268
 O        -2.041504         0.686862         2.573836
 H        -4.016895        -1.328151         2.068299
 H        -4.646492         0.326884         1.850207
 H        -4.435126        -0.648818         0.429467
 H        -1.627055        -1.798559         2.180574
 H        -1.991967        -1.810357         0.494901
 H         0.672727        -0.724770         1.815113
 H         0.686721        -1.810745         0.393838
 H         0.138761         1.487954         1.805251
 H        -0.118453         2.322020         0.268883
 H        -2.595700         2.083002         1.001165
