19
Iteration:  1229
 C        -3.855896        -0.183188         2.183054
 C        -2.513934        -0.092396         1.557464
 C        -1.949602        -1.286544         0.719668
 C        -0.390957        -1.257014         0.727174
 C         0.079832         0.108632         0.201947
 O         1.237570         0.297070        -0.186823
 C        -0.921454         1.255201         0.095390
 C        -2.033872         1.162562         1.040552
 O        -1.553344         0.569053         2.330931
 H        -3.966901        -1.183286         2.633933
 H        -4.122181         0.530746         2.973544
 H        -4.697305        -0.088694         1.487290
 H        -2.294235        -2.318870         1.145165
 H        -2.349918        -1.097696        -0.301333
 H        -0.104525        -1.447800         1.796487
 H        -0.049034        -1.989345         0.002183
 H        -0.285982         2.049346         0.270208
 H        -1.186878         1.450482        -0.992044
 H        -2.696414         2.028760         1.161377
