19
Iteration:  4882charge 0 multiplicity 1
 C        -3.788605        -0.570689         1.249076
 C        -2.413635        -0.061853         1.665578
 C        -1.391673        -1.164452         1.799519
 C        -0.364272        -1.227880         0.584093
 C         0.062569         0.067980        -0.081004
 O         0.608436         0.151914        -1.165929
 C        -0.404708         1.257025         0.742653
 C        -1.902725         1.206795         1.285514
 O        -2.230292         0.950497         2.707254
 H        -4.200787        -1.064320         2.084458
 H        -4.390779         0.369334         0.898488
 H        -3.653265        -1.215820         0.380694
 H        -0.929483        -1.166787         2.839532
 H        -1.910445        -2.176931         1.749965
 H         0.561093        -1.714580         0.983839
 H        -0.667500        -1.886748        -0.252248
 H         0.470558         1.403097         1.497280
 H        -0.221259         2.184541         0.262935
 H        -2.557549         1.838303         0.718335
