19
Iteration:  3344
 C        -3.769090        -0.714564         1.302586
 C        -2.356497        -0.125482         1.664084
 C        -1.272242        -1.191045         1.871996
 C        -0.733433        -1.270961         0.367535
 C         0.010196         0.143907        -0.047694
 O         0.808501         0.261350        -0.946919
 C        -0.335447         1.297054         0.842965
 C        -1.794516         1.161753         1.180917
 O        -2.307728         1.006077         2.551947
 H        -4.394631        -0.969001         2.169843
 H        -4.315873         0.024357         0.654970
 H        -3.743647        -1.607898         0.677580
 H        -0.699544        -0.800536         2.689261
 H        -1.765761        -2.134957         2.027216
 H         0.088323        -1.960233         0.138101
 H        -1.694658        -1.600162        -0.187671
 H         0.303173         1.404169         1.717417
 H        -0.141205         2.158787         0.207868
 H        -2.510424         1.894050         0.808700
