19
Iteration:  2729
 C        -4.027386        -0.395078         1.986982
 C        -2.582846        -0.068650         1.666640
 C        -1.721229        -1.322997         1.250477
 C        -0.419593        -1.299926         0.305153
 C         0.249755         0.054141         0.051035
 O         1.322933         0.269687        -0.400816
 C        -0.696892         1.208173         0.310770
 C        -2.054560         1.165663         1.075623
 O        -1.917194         0.977089         2.469059
 H        -4.068312        -0.936250         3.004081
 H        -4.979157         0.350579         2.049714
 H        -4.362431        -1.211780         1.358442
 H        -1.356315        -1.714273         2.198975
 H        -2.448572        -2.002535         0.764946
 H         0.483188        -2.010593         0.545012
 H        -0.802683        -1.691102        -0.686932
 H        -0.001494         1.986528         0.632303
 H        -1.022285         1.501458        -0.697269
 H        -2.744437         1.979800         0.764798
