19
Iteration:  1442
 C        -3.951178        -0.315721         1.685772
 C        -2.443150        -0.055193         1.584543
 C        -1.460622        -1.177339         1.541078
 C        -0.745553        -1.291160         0.215216
 C         0.089682        -0.058169         0.014044
 O         1.291025         0.051529        -0.276622
 C        -0.779875         1.270700         0.218676
 C        -1.926358         1.199176         1.136349
 O        -1.931970         0.914305         2.563148
 H        -4.156737        -1.047938         2.519517
 H        -4.346212         0.624813         1.856195
 H        -4.302105        -0.799192         0.729506
 H        -0.788237        -0.945950         2.353173
 H        -1.972660        -2.123039         1.766512
 H        -0.059174        -2.180577         0.113162
 H        -1.563720        -1.215741        -0.535962
 H        -0.040282         2.135849         0.550351
 H        -1.050843         1.593116        -0.777148
 H        -2.706851         1.917744         0.884847
