19
Iteration:  4235charge 0 multiplicity 1
 C        -3.829956        -0.384327         2.060222
 C        -2.447350        -0.176214         1.670469
 C        -1.998820        -1.375920         0.866173
 C        -0.404983        -1.163016         0.565805
 C         0.039981         0.208260         0.112863
 O         1.237475         0.454177        -0.163507
 C        -1.088354         1.175471         0.040428
 C        -2.005650         1.133375         1.186318
 O        -1.387629         0.701721         2.375097
 H        -4.135506        -1.424350         2.279427
 H        -4.150588         0.148657         2.929323
 H        -4.454615        -0.100821         1.250930
 H        -2.080778        -2.362156         1.466018
 H        -2.579909        -1.531059        -0.068098
 H         0.058148        -1.406602         1.504946
 H        -0.237320        -1.822627        -0.311133
 H        -0.717866         2.166889        -0.016945
 H        -1.563201         1.087798        -0.991264
 H        -2.742212         2.029402         1.336162
