19
Iteration:  4552
 C        -3.817023        -0.552953         1.763977
 C        -2.358439        -0.139162         1.656261
 C        -1.413562        -1.348868         1.582816
 C        -0.784865        -1.247517         0.177708
 C         0.107776         0.069327        -0.009103
 O         1.234552         0.256527        -0.456377
 C        -0.718148         1.300833         0.316425
 C        -1.938129         1.206703         1.165962
 O        -2.061902         1.021306         2.540747
 H        -3.937121        -1.712079         1.606467
 H        -4.435551        -0.236461         2.579939
 H        -4.476580        -0.035708         1.029019
 H        -0.732601        -1.571064         2.457433
 H        -2.005938        -2.205835         1.553961
 H        -0.235716        -2.115559        -0.050407
 H        -1.698291        -1.186847        -0.427807
 H        -0.089253         2.027399         0.775327
 H        -1.064213         1.738638        -0.707530
 H        -2.863913         1.687462         0.773889
