19
Iteration:  2552charge 0 multiplicity 1
 C        -3.791972        -0.566674         1.503893
 C        -2.412874        -0.044921         1.696430
 C        -1.300948        -1.212915         1.620785
 C        -0.640357        -1.293097         0.219613
 C         0.059479         0.026352        -0.050672
 O         1.005294         0.076401        -0.789537
 C        -0.460313         1.206172         0.741874
 C        -1.940896         1.259456         1.182726
 O        -2.344565         1.134791         2.617630
 H        -4.186817        -1.034025         2.399899
 H        -4.516536         0.262354         1.221667
 H        -3.840630        -1.220910         0.632613
 H        -0.518172        -1.132855         2.375880
 H        -1.777236        -2.127962         1.833382
 H         0.068029        -2.075610         0.149912
 H        -1.318313        -1.468738        -0.629319
 H         0.198886         1.129048         1.705582
 H        -0.120023         2.191645         0.227324
 H        -2.580109         1.899907         0.635961
