19
Iteration:  1964charge 0 multiplicity 1
 C        -3.816851        -0.087319         2.172413
 C        -2.441382        -0.155292         1.551891
 C        -1.807322        -1.498931         1.160790
 C        -0.604734        -1.287270         0.252071
 C         0.032089         0.110860         0.166016
 O         1.243676         0.300907         0.262734
 C        -0.923799         1.281441        -0.082751
 C        -2.063967         1.155527         0.929109
 O        -1.499838         0.713529         2.211259
 H        -4.215502        -0.903432         2.867503
 H        -3.977637         0.825930         2.694477
 H        -4.574489        -0.023968         1.276142
 H        -1.596616        -1.919222         2.141875
 H        -2.563332        -2.176372         0.820984
 H         0.202271        -1.927203         0.590932
 H        -0.902683        -1.551611        -0.754005
 H        -0.468341         2.352615        -0.015198
 H        -1.264013         1.206730        -1.104337
 H        -2.861635         1.939004         0.899047
