19
Iteration:  4400
 C        -3.888497        -0.274858         2.166246
 C        -2.486799        -0.188218         1.564574
 C        -1.738773        -1.413476         1.135238
 C        -0.548685        -1.296335         0.133125
 C         0.107944         0.159258         0.170543
 O         1.285986         0.430775         0.040138
 C        -1.003779         1.306839         0.032265
 C        -2.102864         1.151751         1.095515
 O        -1.523519         0.650963         2.301691
 H        -3.919486        -0.057591         3.287269
 H        -4.457090         0.543776         1.814281
 H        -4.487691        -1.171178         2.008851
 H        -1.168381        -1.678040         2.098309
 H        -2.420734        -2.217826         0.870651
 H         0.168881        -2.077618         0.291671
 H        -0.936633        -1.325570        -0.940698
 H        -0.504915         2.256724         0.125738
 H        -1.541613         1.348123        -0.898207
 H        -2.827178         2.015798         1.094244
