19
Iteration:  1959charge 0 multiplicity 1
 C        -3.814038        -0.092013         2.138216
 C        -2.472205        -0.141157         1.560099
 C        -1.796439        -1.479942         1.202715
 C        -0.580744        -1.341153         0.248062
 C         0.024243         0.139258         0.090624
 O         1.218602         0.306116         0.247244
 C        -0.862397         1.271813        -0.060222
 C        -2.035163         1.171576         0.901824
 O        -1.572706         0.690460         2.265833
 H        -4.026015        -0.866905         2.821988
 H        -3.873031         0.935162         2.622782
 H        -4.494047        -0.079681         1.359151
 H        -1.460418        -1.767380         2.256007
 H        -2.555496        -2.185413         0.707594
 H         0.290694        -1.936648         0.572001
 H        -0.978360        -1.531341        -0.784347
 H        -0.466353         2.216900         0.046963
 H        -1.432736         1.227068        -1.045429
 H        -2.734744         1.982594         1.053242
