19
Iteration:   536charge 0 multiplicity 1
 C        -3.910311        -0.543685         1.440095
 C        -2.444003         0.003958         1.594613
 C        -1.460876        -1.166512         1.687525
 C        -0.600784        -1.250070         0.400403
 C         0.022126         0.024277         0.007843
 O         0.917653        -0.004150        -0.847071
 C        -0.332925         1.253766         0.735342
 C        -1.848826         1.289451         1.167615
 O        -2.165292         1.014412         2.574875
 H        -4.434825        -0.876283         2.397864
 H        -4.528492         0.093177         0.905467
 H        -3.876780        -1.358192         0.573065
 H        -0.792300        -0.902245         2.540928
 H        -2.043724        -2.075985         1.938749
 H         0.164091        -2.059725         0.320090
 H        -1.276324        -1.444511        -0.392416
 H         0.232640         1.256411         1.622530
 H        -0.054580         2.084497         0.140729
 H        -2.389884         2.073289         0.682362
