19
Iteration:  3110charge 0 multiplicity 1
 C        -4.077941        -0.353214         1.572312
 C        -2.488838        -0.115864         1.542366
 C        -1.626316        -1.280140         0.983450
 C        -0.114682        -0.960892         1.143800
 C         0.061910         0.083762         0.100293
 O         0.735497        -0.044265        -0.914986
 C        -0.623311         1.455568         0.482274
 C        -1.894840         1.235890         1.271120
 O        -1.817983         0.556769         2.544908
 H        -4.341897        -0.689738         2.648269
 H        -4.419251         0.670531         1.283755
 H        -4.363999        -1.101230         0.816233
 H        -1.780137        -2.255553         1.513664
 H        -1.843703        -1.394268        -0.036922
 H         0.061924        -0.576199         2.197876
 H         0.641176        -1.706978         0.958474
 H         0.042465         2.078750         1.110319
 H        -0.842644         2.131511        -0.313521
 H        -2.530441         2.125669         1.364004
