19
Iteration:  2678
 C        -3.925157        -0.294160         1.607491
 C        -2.382175        -0.254658         1.549289
 C        -1.523427        -1.457318         1.537104
 C        -0.525748        -1.231696         0.482772
 C         0.036169         0.192466         0.131985
 O         1.047055         0.116433        -0.590763
 C        -0.667937         1.501863         0.390223
 C        -1.965366         1.114536         1.094040
 O        -1.892652         0.851789         2.502840
 H        -4.427261        -0.665952         2.523624
 H        -4.330566         0.641442         1.468996
 H        -4.530389        -0.878232         0.894422
 H        -1.143163        -1.530850         2.569342
 H        -2.217700        -2.360455         1.403648
 H         0.445604        -1.726100         0.744919
 H        -1.007772        -1.603209        -0.406516
 H        -0.019533         2.215686         1.114924
 H        -0.817915         2.021000        -0.547465
 H        -2.828467         1.822875         0.904633
