19
Iteration:  1486charge 0 multiplicity 1
 C        -3.869898        -0.410832         1.484769
 C        -2.423628        -0.065648         1.653188
 C        -1.462135        -1.323320         1.646520
 C        -0.641791        -1.317987         0.336555
 C         0.084046         0.060636         0.006255
 O         1.054810        -0.089780        -0.697569
 C        -0.495597         1.412137         0.596482
 C        -1.923034         1.157800         1.139053
 O        -2.132086         1.150273         2.563482
 H        -4.264449        -0.863911         2.475675
 H        -4.398796         0.470850         1.411015
 H        -4.049249        -1.185687         0.656979
 H        -0.895108        -1.264799         2.557533
 H        -2.162190        -2.173901         1.640269
 H         0.196172        -2.103048         0.420507
 H        -1.254449        -1.499510        -0.572576
 H         0.253442         1.806746         1.394883
 H        -0.589236         2.183382        -0.128061
 H        -2.676424         1.795504         0.713944
