19
Iteration:   157
 C        -3.884511        -0.081924         2.169835
 C        -2.496053        -0.021786         1.500281
 C        -1.985632        -1.395298         1.077551
 C        -0.668336        -1.355078         0.253511
 C         0.085939         0.027432         0.215531
 O         1.260759         0.174229         0.224564
 C        -0.833703         1.289951        -0.018453
 C        -1.891613         1.216221         0.967420
 O        -1.527324         0.718643         2.230387
 H        -3.612602        -0.368980         3.212040
 H        -4.330669         0.891242         2.194914
 H        -4.508693        -0.693187         1.580183
 H        -1.578780        -1.852628         1.984721
 H        -2.796363        -2.040251         0.686624
 H         0.016144        -2.232196         0.605315
 H        -0.869455        -1.516809        -0.773642
 H        -0.113216         2.136179         0.137980
 H        -1.192283         1.415698        -1.029051
 H        -2.499635         2.100464         0.928323
