19
Iteration:  1915charge 0 multiplicity 1
 C        -3.936090        -0.320021         1.892990
 C        -2.468596        -0.041517         1.702149
 C        -1.685330        -1.331503         1.294125
 C        -0.620683        -1.238997         0.091686
 C         0.153004         0.031815         0.137150
 O         1.336643         0.100619        -0.060840
 C        -0.896007         1.237855         0.138444
 C        -2.006275         1.263706         1.054676
 O        -1.699066         0.894098         2.446093
 H        -4.121747        -0.736369         2.849258
 H        -4.694918         0.534037         1.765210
 H        -4.275451        -1.063278         1.256799
 H        -1.214402        -1.623182         2.302785
 H        -2.586487        -2.038841         1.091569
 H         0.101239        -2.043392         0.326417
 H        -1.218210        -1.268539        -0.857965
 H        -0.504375         2.200050         0.030811
 H        -1.289939         1.065592        -0.911212
 H        -2.708922         2.128432         1.045739
