19
Iteration:  2714charge 0 multiplicity 1
 C        -4.035479        -0.450190         1.927037
 C        -2.531947        -0.090338         1.518497
 C        -1.681621        -1.291396         1.346631
 C        -0.472365        -1.281024         0.386194
 C         0.167052         0.080633         0.093831
 O         1.242149         0.224840        -0.471425
 C        -0.723641         1.306415         0.336180
 C        -2.007076         1.184244         1.068578
 O        -1.864505         0.888438         2.468815
 H        -4.052557        -0.626277         2.956184
 H        -4.496087         0.477530         1.710541
 H        -4.390964        -1.270859         1.274068
 H        -1.315694        -1.517410         2.385662
 H        -2.219422        -2.159960         1.018395
 H         0.159309        -2.011717         0.771887
 H        -0.581214        -1.699448        -0.653210
 H        -0.214358         1.952234         1.003899
 H        -0.706507         1.820661        -0.678646
 H        -2.653830         2.011728         0.909281
