19
Iteration:  1991
 C        -3.802967        -0.226699         2.285639
 C        -2.467665        -0.080449         1.596548
 C        -1.907964        -1.394967         0.989631
 C        -0.567261        -1.225255         0.297588
 C         0.045665         0.117600         0.297960
 O         1.235406         0.271348         0.385414
 C        -0.985284         1.152466        -0.171685
 C        -2.087089         1.117181         0.900500
 O        -1.335049         0.829714         2.110416
 H        -4.030823        -1.140137         2.773858
 H        -4.047206         0.551182         3.095016
 H        -4.562577        -0.100179         1.582588
 H        -2.123041        -2.156591         1.743889
 H        -2.754967        -1.779714         0.360528
 H         0.215617        -1.994888         0.480930
 H        -0.840326        -1.338474        -0.824211
 H        -0.751615         2.160015        -0.261566
 H        -1.347402         0.909235        -1.263914
 H        -2.717223         2.041688         0.827895
