19
Iteration:  3589charge 0 multiplicity 1
 C        -3.662139        -0.414586         2.308260
 C        -2.399023        -0.209872         1.525441
 C        -1.676636        -1.461470         1.099511
 C        -0.623140        -1.161829        -0.019193
 C        -0.003269         0.176358         0.034708
 O         1.137914         0.358713         0.502164
 C        -0.952202         1.376620        -0.200903
 C        -2.052461         1.117747         0.997208
 O        -1.635502         0.821779         2.303518
 H        -3.400959        -0.665820         3.395359
 H        -4.410196         0.348253         2.404164
 H        -4.290663        -1.334236         1.963057
 H        -1.178651        -2.089545         1.854705
 H        -2.485338        -2.175995         0.759199
 H         0.225308        -1.872594         0.017568
 H        -1.087408        -1.351227        -1.034573
 H        -0.348136         2.256648        -0.263343
 H        -1.664188         1.304099        -1.083074
 H        -2.813096         1.911542         0.959494
