19
Iteration:  2433
 C        -3.977132        -0.499152         1.428635
 C        -2.508107        -0.069861         1.527218
 C        -1.637470        -1.216533         1.647702
 C        -0.302071        -1.221886         0.731779
 C         0.256805         0.060399         0.087702
 O         0.633948         0.128078        -1.080962
 C        -0.344373         1.369686         0.786126
 C        -1.818860         1.276342         1.124127
 O        -2.052332         0.801390         2.499906
 H        -4.140258        -1.517084         1.745144
 H        -4.799399         0.100177         2.043080
 H        -4.341491        -0.415378         0.435415
 H        -1.353976        -1.292840         2.720692
 H        -2.074643        -2.194348         1.455655
 H         0.430475        -1.695168         1.483413
 H        -0.448194        -1.901413        -0.129495
 H         0.234733         1.770031         1.655574
 H        -0.254687         2.150012        -0.038716
 H        -2.454627         2.022587         0.688183
