19
Iteration:  4659charge 0 multiplicity 1
 C        -3.941937        -0.601263         1.662138
 C        -2.463662        -0.168198         1.659147
 C        -1.341169        -1.228340         1.662319
 C        -0.530555        -1.155005         0.459305
 C         0.132901         0.119052        -0.023459
 O         1.074152         0.031972        -0.827765
 C        -0.556913         1.351936         0.542552
 C        -2.044016         1.173737         1.126690
 O        -2.154226         1.057283         2.506566
 H        -4.363160        -0.561032         0.622522
 H        -3.970490        -1.585362         2.044931
 H        -4.526019         0.125254         2.196858
 H        -0.621874        -1.080377         2.559712
 H        -1.726178        -2.238310         1.666920
 H         0.065664        -2.005474         0.285164
 H        -1.224229        -1.313847        -0.440746
 H         0.041839         1.577279         1.394544
 H        -0.454538         2.328919        -0.092413
 H        -2.858232         1.710676         0.611266
