19
Iteration:  1460charge 0 multiplicity 1
 C        -3.953578        -0.367223         1.552561
 C        -2.500962         0.009109         1.649340
 C        -1.421462        -1.185463         1.625018
 C        -0.710896        -1.303507         0.283822
 C         0.080591        -0.050911         0.024932
 O         1.198200         0.080681        -0.491394
 C        -0.584329         1.202540         0.385967
 C        -1.965617         1.252518         1.100789
 O        -1.979101         0.908333         2.576854
 H        -4.279715        -0.899200         2.427915
 H        -4.694240         0.625247         1.648553
 H        -4.119346        -0.994309         0.685969
 H        -0.744361        -0.792637         2.456686
 H        -1.941897        -2.160365         1.893105
 H        -0.099081        -2.170490         0.220648
 H        -1.425730        -1.406210        -0.560853
 H         0.140177         1.772880         0.804770
 H        -0.844095         1.670838        -0.594472
 H        -2.673092         2.126873         0.967435
