19
Iteration:  3382charge 0 multiplicity 1
 C        -3.818495        -0.628741         1.582549
 C        -2.402822        -0.178585         1.626511
 C        -1.272086        -1.180445         1.680843
 C        -0.565999        -1.162020         0.217442
 C         0.038798         0.121003        -0.033779
 O         0.924913         0.175168        -0.871435
 C        -0.445004         1.258481         0.901908
 C        -1.982805         1.177375         1.080527
 O        -2.289302         1.015482         2.539092
 H        -4.405304        -0.388302         2.501583
 H        -4.284814        -0.020751         0.782628
 H        -3.764024        -1.717986         1.350714
 H        -0.440757        -1.394526         2.387216
 H        -1.780170        -2.174929         1.819626
 H         0.129934        -2.016383         0.252638
 H        -1.258030        -1.384306        -0.560406
 H        -0.162425         1.280039         1.950336
 H        -0.157405         2.201306         0.390011
 H        -2.539539         1.975184         0.540856
