19
Iteration:  2891charge 0 multiplicity 1
 C        -3.585241        -0.414640         2.388207
 C        -2.487504        -0.152278         1.489820
 C        -1.902363        -1.444448         1.087538
 C        -0.750046        -1.204074         0.125613
 C         0.002551         0.241425         0.234449
 O         1.206191         0.287538         0.618953
 C        -0.877239         1.333608        -0.226982
 C        -2.071441         1.143203         0.781076
 O        -1.498773         0.801055         2.061540
 H        -3.142520        -0.826878         3.307694
 H        -4.078381         0.569195         2.852393
 H        -4.216897        -1.123859         1.913336
 H        -1.619965        -2.101790         2.079673
 H        -2.712945        -1.975964         0.577811
 H         0.093526        -1.906722         0.358017
 H        -0.955079        -1.361709        -0.956792
 H        -0.508864         2.312882        -0.196683
 H        -1.221692         1.268594        -1.434684
 H        -2.741059         1.984872         0.853991
