19
Iteration:  2160
 C        -4.014795        -0.335652         1.953825
 C        -2.573536        -0.036320         1.595114
 C        -1.858003        -1.323851         1.219639
 C        -0.449987        -1.263858         0.568990
 C         0.158073         0.127193         0.141345
 O         1.297595         0.161166        -0.335135
 C        -0.834133         1.331462         0.154334
 C        -2.004354         1.209329         1.056071
 O        -1.618250         0.753138         2.382407
 H        -4.235151        -1.366515         2.194122
 H        -4.431872         0.302410         2.644066
 H        -4.616944        -0.310329         1.037195
 H        -1.820507        -2.040513         2.107273
 H        -2.467896        -1.737425         0.389036
 H         0.290857        -1.917832         1.085072
 H        -0.459192        -1.740726        -0.430450
 H        -0.228937         2.322086         0.498560
 H        -1.139798         1.568741        -0.901816
 H        -2.675476         2.076460         1.135823
