19
Iteration:  3387
 C        -3.840408        -0.604986         1.594948
 C        -2.420532        -0.184384         1.629605
 C        -1.267976        -1.231915         1.673176
 C        -0.603390        -1.208024         0.258769
 C         0.044926         0.119835        -0.073888
 O         0.954636         0.216763        -0.840874
 C        -0.462414         1.267973         0.875684
 C        -1.963606         1.213844         1.083507
 O        -2.267565         0.991151         2.512714
 H        -4.307851        -0.395436         2.561553
 H        -4.460324        -0.084987         0.849316
 H        -3.939822        -1.680025         1.449381
 H        -0.417586        -1.206992         2.392870
 H        -1.808688        -2.153575         1.812875
 H         0.253313        -1.907069         0.290707
 H        -1.218941        -1.414792        -0.686316
 H         0.041474         1.208187         1.937043
 H        -0.208349         2.236534         0.403394
 H        -2.638191         1.897228         0.507214
