19
Iteration:  2555charge 0 multiplicity 1
 C        -3.778539        -0.571262         1.501069
 C        -2.417118        -0.036324         1.725612
 C        -1.298120        -1.204794         1.624329
 C        -0.673408        -1.295754         0.210683
 C         0.065134         0.010541        -0.059143
 O         1.016491         0.102130        -0.781387
 C        -0.449221         1.192429         0.731421
 C        -1.929351         1.249966         1.198681
 O        -2.350093         1.148798         2.604464
 H        -4.225919        -1.116899         2.333459
 H        -4.525825         0.271172         1.255508
 H        -3.894180        -1.180411         0.640422
 H        -0.457740        -1.202638         2.357558
 H        -1.846086        -2.167807         1.830080
 H         0.168488        -2.041796         0.150457
 H        -1.384721        -1.451178        -0.609274
 H         0.187660         1.139836         1.713880
 H        -0.129327         2.085514         0.179033
 H        -2.659772         1.808694         0.566869
