19
Iteration:  1916
 C        -3.938186        -0.313816         1.901271
 C        -2.473980        -0.043164         1.695478
 C        -1.686840        -1.331921         1.285010
 C        -0.612205        -1.246503         0.092934
 C         0.148677         0.031281         0.127614
 O         1.333597         0.108009        -0.051709
 C        -0.898681         1.240108         0.135889
 C        -2.007314         1.261647         1.059448
 O        -1.696094         0.892500         2.445118
 H        -4.132088        -0.732847         2.864295
 H        -4.684685         0.546820         1.786117
 H        -4.304551        -1.061571         1.242579
 H        -1.214162        -1.625631         2.293357
 H        -2.572183        -2.063238         1.114234
 H         0.104574        -2.047502         0.321683
 H        -1.191853        -1.301010        -0.844520
 H        -0.476067         2.194869        -0.004214
 H        -1.286787         1.056148        -0.883429
 H        -2.652332         2.140721         1.041630
