19
Iteration:  3797charge 0 multiplicity 1
 C        -3.963100        -0.373017         1.860148
 C        -2.472745        -0.212710         1.659381
 C        -1.694787        -1.371268         0.956619
 C        -0.188702        -1.127731         0.798376
 C         0.132911         0.173758         0.065233
 O         1.067118         0.324480        -0.685769
 C        -0.935514         1.383997         0.249236
 C        -2.005595         1.097152         1.257680
 O        -1.767535         0.670701         2.614439
 H        -4.292566        -1.398678         2.141097
 H        -4.262223         0.411538         2.592103
 H        -4.389756        -0.114440         0.818585
 H        -1.893906        -2.394337         1.288218
 H        -2.055519        -1.578641        -0.160896
 H         0.291500        -1.101600         1.781978
 H         0.252907        -1.942676         0.279401
 H        -0.416249         2.306815         0.432400
 H        -1.477847         1.541744        -0.755169
 H        -2.865882         1.788722         1.348719
