19
Iteration:  3853
 C        -3.898627        -0.563657         1.796584
 C        -2.464624        -0.161543         1.408397
 C        -1.689614        -1.419936         0.958780
 C        -0.198652        -0.978394         0.980821
 C         0.119480         0.283237         0.134091
 O         0.704272         0.065005        -0.881284
 C        -0.597139         1.615277         0.542475
 C        -1.901287         1.233616         1.298487
 O        -1.870277         0.553212         2.494716
 H        -3.841450        -0.845009         2.856793
 H        -4.554927         0.437436         1.788683
 H        -4.465993        -1.215822         1.077583
 H        -1.853044        -2.241036         1.671557
 H        -1.863403        -1.546037        -0.219882
 H         0.107865        -0.868771         2.009214
 H         0.496160        -1.653521         0.519072
 H         0.075935         2.296444         0.992798
 H        -0.969492         2.028828        -0.489214
 H        -2.773873         1.885348         1.311062
