19
Iteration:   795charge 0 multiplicity 1
 C        -3.671068        -0.179623         2.364934
 C        -2.475554        -0.109558         1.432494
 C        -2.035720        -1.423919         0.840510
 C        -0.541154        -1.349004         0.309158
 C         0.025892         0.071975         0.245858
 O         1.192270         0.364418         0.402323
 C        -0.991972         1.241579        -0.099528
 C        -2.078883         1.207294         0.961390
 O        -1.369147         0.740520         2.130158
 H        -3.448324        -0.936661         3.106187
 H        -3.808039         0.757133         2.719180
 H        -4.626386        -0.397758         1.863968
 H        -2.191707        -2.274758         1.584673
 H        -2.705738        -1.607826        -0.039311
 H         0.022294        -1.957079         1.068840
 H        -0.332492        -1.795824        -0.600401
 H        -0.447890         2.186701        -0.191374
 H        -1.433087         1.144093        -1.054044
 H        -2.811201         1.986073         1.160036
