19
Iteration:  2573
 C        -3.797008        -0.567548         1.479351
 C        -2.371683        -0.126852         1.818089
 C        -1.377969        -1.227158         1.733251
 C        -0.829225        -1.284574         0.224486
 C         0.065726         0.017042        -0.098876
 O         1.061444         0.232650        -0.718894
 C        -0.438284         1.219146         0.759834
 C        -1.883171         1.091158         1.097935
 O        -2.239087         1.175980         2.490601
 H        -4.043253        -1.422126         2.100536
 H        -4.556645         0.230971         1.653181
 H        -3.787611        -0.812627         0.399786
 H        -0.588688        -1.086671         2.458715
 H        -1.804780        -2.158307         1.944632
 H        -0.365227        -2.204688         0.077442
 H        -1.703198        -1.359498        -0.458337
 H         0.263938         1.397275         1.574629
 H        -0.323545         2.127935         0.068897
 H        -2.534772         1.593255         0.443747
