19
Iteration:  2562
 C        -3.798560        -0.568364         1.482057
 C        -2.384729        -0.051981         1.795076
 C        -1.329153        -1.209354         1.656258
 C        -0.731757        -1.288131         0.200338
 C         0.031606        -0.034928        -0.067175
 O         1.067279         0.173590        -0.774750
 C        -0.434600         1.184272         0.743676
 C        -1.916625         1.202031         1.193364
 O        -2.329273         1.167559         2.552448
 H        -4.157781        -1.294053         2.223065
 H        -4.478305         0.322077         1.481395
 H        -3.834579        -1.189416         0.542635
 H        -0.491621        -1.198392         2.330376
 H        -1.868333        -2.073322         1.822921
 H         0.022235        -2.001521         0.147544
 H        -1.554647        -1.477786        -0.509084
 H         0.193367         1.287015         1.683288
 H        -0.131005         2.061403         0.035215
 H        -2.612038         1.602117         0.535606
