19
Iteration:  3087
 C        -3.957509        -0.422845         1.732288
 C        -2.532796        -0.068157         1.396618
 C        -1.739673        -1.319420         1.049389
 C        -0.267338        -1.106426         0.932372
 C         0.129874         0.127994         0.095242
 O         0.933840         0.043109        -0.866002
 C        -0.558571         1.406100         0.480506
 C        -1.958099         1.241044         1.276546
 O        -1.920495         0.711620         2.580289
 H        -3.852882        -0.982032         2.700497
 H        -4.691309         0.491143         1.688016
 H        -4.182221        -1.194627         0.985540
 H        -1.900714        -2.016473         1.899023
 H        -2.070697        -1.774111         0.159872
 H         0.223679        -0.920041         1.916497
 H         0.300289        -1.957225         0.553395
 H         0.049687         2.123038         1.094245
 H        -0.715836         2.043005        -0.373237
 H        -2.626597         2.089416         1.159862
