19
Iteration:  2094charge 0 multiplicity 1
 C        -3.880070        -0.096269         2.354383
 C        -2.585774        -0.056496         1.488316
 C        -1.967304        -1.389506         0.809905
 C        -0.443011        -1.302869         0.462537
 C         0.075590         0.109384         0.139596
 O         1.277342         0.389028         0.210675
 C        -0.973869         1.174434        -0.183487
 C        -1.953371         1.203241         1.047238
 O        -1.499011         0.550346         2.244277
 H        -3.711004        -0.422072         3.373347
 H        -4.395265         0.781928         2.296487
 H        -4.521375        -0.872016         1.900546
 H        -2.089700        -2.062872         1.673868
 H        -2.566099        -1.578435        -0.077308
 H         0.191934        -1.628574         1.305985
 H        -0.181506        -2.050737        -0.283045
 H        -0.432952         2.199604        -0.265522
 H        -1.543736         0.957448        -1.030672
 H        -2.306231         2.225184         1.195990
