19
Iteration:  4992charge 0 multiplicity 1
 C        -3.819890        -0.638177         1.519019
 C        -2.392250        -0.104550         1.696489
 C        -1.304388        -1.221624         1.783056
 C        -0.613784        -1.207592         0.401026
 C         0.044548         0.102645        -0.071589
 O         0.885263         0.141537        -0.965948
 C        -0.366476         1.344317         0.723087
 C        -1.917430         1.226586         1.060767
 O        -2.284345         0.980608         2.582920
 H        -4.095041        -1.054513         2.469348
 H        -4.604853         0.149698         1.278267
 H        -3.925016        -1.400589         0.754918
 H        -0.525055        -1.021461         2.545154
 H        -1.813422        -2.236248         1.838922
 H         0.150804        -2.001935         0.247783
 H        -1.426386        -1.401605        -0.320084
 H         0.048920         1.140181         1.743953
 H        -0.180859         2.233089         0.249851
 H        -2.679236         1.913627         0.746086
