19
Iteration:   562charge 0 multiplicity 1
 C        -3.932724        -0.293781         1.575638
 C        -2.386216        -0.090356         1.616836
 C        -1.466716        -1.283950         1.643660
 C        -0.595240        -1.324779         0.326580
 C         0.092122         0.008562        -0.058265
 O         1.092641         0.039544        -0.739975
 C        -0.450110         1.367215         0.603463
 C        -1.965378         1.185621         1.171964
 O        -2.193395         0.948892         2.591545
 H        -4.284144        -0.434370         2.582268
 H        -4.449327         0.606780         0.993942
 H        -4.316136        -1.062598         1.029529
 H        -0.767810        -1.123776         2.487555
 H        -2.096723        -2.241129         1.846477
 H         0.199668        -2.035726         0.412161
 H        -1.191395        -1.709303        -0.538109
 H         0.246061         1.655296         1.456663
 H        -0.415213         2.196534        -0.216741
 H        -2.723555         1.793416         0.540859
