19
Iteration:  3369
 C        -3.753371        -0.685806         1.472271
 C        -2.372324        -0.105491         1.729817
 C        -1.274572        -1.198859         1.612948
 C        -0.616307        -1.198076         0.294748
 C         0.131465         0.122703         0.040979
 O         0.844587         0.150253        -0.931053
 C        -0.437955         1.286093         0.887377
 C        -1.935484         1.153312         1.141026
 O        -2.323118         1.068241         2.548742
 H        -4.357463        -0.622758         2.364225
 H        -4.330938        -0.159066         0.591679
 H        -3.799003        -1.740854         1.177605
 H        -0.723604        -0.868525         2.472230
 H        -1.774733        -2.200394         1.709356
 H         0.082127        -1.963197        -0.045342
 H        -1.467388        -1.173502        -0.438673
 H         0.053894         1.155089         1.799105
 H        -0.115591         2.228839         0.526658
 H        -2.680465         1.657229         0.583891
