19
Iteration:  4479
 C        -3.836703        -0.530577         2.013859
 C        -2.441462        -0.162101         1.655837
 C        -1.521945        -1.270932         1.353847
 C        -0.732793        -1.230726         0.058341
 C         0.120995         0.124102         0.122670
 O         1.296901         0.248690        -0.229152
 C        -0.762001         1.273310         0.171481
 C        -2.010816         1.169709         1.050242
 O        -1.919620         0.938932         2.495658
 H        -3.979677        -1.561857         2.298499
 H        -4.288305         0.125203         2.755348
 H        -4.552359        -0.418999         1.170982
 H        -0.915699        -1.559142         2.217463
 H        -2.251903        -2.173794         1.244898
 H        -0.060379        -2.143661        -0.008428
 H        -1.444017        -1.062228        -0.784893
 H        -0.252779         2.264234         0.419704
 H        -1.186613         1.374883        -0.800801
 H        -2.729613         1.971281         0.900534
