19
Iteration:  3261charge 0 multiplicity 1
 C        -3.948558        -0.498800         1.277707
 C        -2.397179        -0.176075         1.490890
 C        -1.440681        -1.262089         1.718879
 C        -0.227408        -1.240168         0.772231
 C        -0.000771         0.100373         0.035611
 O         0.516560         0.243208        -1.102018
 C        -0.341662         1.332095         0.873580
 C        -1.792626         1.196414         1.155647
 O        -2.145119         0.888020         2.497180
 H        -4.056882        -1.551021         1.415429
 H        -4.549194         0.081157         2.094209
 H        -4.340201        -0.191799         0.308997
 H        -1.212798        -1.184552         2.813021
 H        -1.949806        -2.290945         1.693877
 H         0.730123        -1.470883         1.346670
 H        -0.303472        -2.030692         0.068722
 H         0.332373         1.399710         1.855327
 H        -0.087127         2.186416         0.230640
 H        -2.601497         1.822741         0.713727
