19
Iteration:  4084charge 0 multiplicity 1
 C        -3.952926        -0.334335         1.600123
 C        -2.466390        -0.152006         1.521381
 C        -1.549748        -1.305819         1.003762
 C        -0.034234        -0.965905         1.003344
 C         0.099479         0.189570         0.087528
 O         0.560065         0.059870        -1.003115
 C        -0.664794         1.421301         0.581668
 C        -1.968814         1.205710         1.333979
 O        -1.796233         0.495470         2.601483
 H        -4.303314        -0.541077         2.658459
 H        -4.541710         0.523853         1.247777
 H        -4.360078        -1.044795         0.912148
 H        -1.668496        -2.168003         1.580333
 H        -1.789640        -1.618149        -0.067430
 H         0.109851        -0.739800         2.043375
 H         0.612502        -1.816428         0.713534
 H        -0.001386         1.976065         1.302635
 H        -0.959451         2.149238        -0.141355
 H        -2.735411         1.960235         1.362539
