19
Iteration:  3860charge 0 multiplicity 1
 C        -3.873686        -0.496168         1.770769
 C        -2.495591        -0.190175         1.388597
 C        -1.622984        -1.403898         0.946394
 C        -0.144064        -1.004690         0.948829
 C         0.061380         0.223348         0.216966
 O         0.635001         0.062529        -0.883090
 C        -0.611860         1.630481         0.546906
 C        -1.911377         1.252941         1.269619
 O        -1.855925         0.571777         2.520022
 H        -3.943996        -0.904989         2.784852
 H        -4.550489         0.282594         1.678440
 H        -4.260100        -1.339044         1.124843
 H        -1.724840        -2.275845         1.586838
 H        -1.936327        -1.718078        -0.036809
 H         0.301244        -0.798049         1.970815
 H         0.461982        -1.768143         0.443055
 H         0.021708         2.246606         1.262398
 H        -0.804632         2.212890        -0.324645
 H        -2.719688         2.045934         1.030883
