19
Iteration:  2309charge 0 multiplicity 1
 C        -4.005020        -0.245795         1.525231
 C        -2.426358        -0.165716         1.468330
 C        -1.631118        -1.366609         0.961418
 C        -0.096578        -1.096451         1.188043
 C         0.091483         0.106895         0.223230
 O         0.455921        -0.029894        -0.948077
 C        -0.499590         1.409766         0.604282
 C        -1.879362         1.211710         1.213058
 O        -1.765812         0.726079         2.541060
 H        -4.439499        -0.552290         2.496636
 H        -4.528709         0.614447         1.309480
 H        -4.412229        -0.911737         0.712408
 H        -1.917791        -2.291934         1.368534
 H        -1.818643        -1.380497        -0.102139
 H        -0.050361        -0.831156         2.218842
 H         0.673386        -1.870159         1.017397
 H         0.140630         2.001323         1.351698
 H        -0.647121         2.080250        -0.295250
 H        -2.549535         2.026608         1.002535
