19
Iteration:   203
 C        -3.930247        -0.174598         2.054924
 C        -2.507130        -0.006908         1.567246
 C        -1.962295        -1.287772         0.951655
 C        -0.448587        -1.316728         0.584986
 C         0.203954        -0.021554         0.188542
 O         1.315013        -0.003325        -0.331132
 C        -0.732848         1.251400         0.158895
 C        -2.010530         1.226483         1.049243
 O        -1.804026         0.910118         2.483960
 H        -3.879458        -0.732845         2.944246
 H        -4.433449         0.827615         2.279931
 H        -4.466502        -0.638957         1.290551
 H        -2.183610        -2.156635         1.617657
 H        -2.586377        -1.400245        -0.019520
 H         0.190477        -1.741217         1.356317
 H        -0.354269        -2.055864        -0.221767
 H        -0.107314         2.050703         0.501097
 H        -0.943357         1.432133        -0.936838
 H        -2.601399         2.143445         0.866354
