19
Iteration:  2772charge 0 multiplicity 1
 C        -3.847744        -0.336583         2.047721
 C        -2.479108        -0.126308         1.540005
 C        -1.684509        -1.432483         1.258243
 C        -0.534429        -1.190959         0.264943
 C         0.054495         0.142752         0.121076
 O         1.253360         0.188783        -0.015506
 C        -0.872179         1.313520         0.126829
 C        -2.101675         1.203301         0.947402
 O        -1.675057         0.825500         2.352261
 H        -3.980941        -1.191328         2.743203
 H        -4.262937         0.621211         2.576037
 H        -4.529362        -0.562031         1.247098
 H        -1.267337        -1.787834         2.217002
 H        -2.373399        -2.224079         0.984282
 H         0.303653        -1.843946         0.600741
 H        -0.920669        -1.344205        -0.782944
 H        -0.415094         2.217943         0.298574
 H        -1.147009         1.375427        -0.966915
 H        -2.917619         1.917589         0.811767
