19
Iteration:  4149charge 0 multiplicity 1
 C        -3.939374        -0.403468         1.870423
 C        -2.436524        -0.207393         1.608585
 C        -1.708604        -1.321016         1.024996
 C        -0.257757        -1.118994         0.757778
 C         0.024390         0.228905         0.022637
 O         0.993301         0.183278        -0.700699
 C        -0.839656         1.429986         0.382245
 C        -2.009866         1.156507         1.209652
 O        -1.721651         0.660761         2.552781
 H        -4.050948        -1.404926         2.416465
 H        -4.403645         0.435201         2.384324
 H        -4.402604        -0.503315         0.910840
 H        -1.835057        -2.253653         1.491931
 H        -2.183963        -1.433755        -0.013689
 H         0.400399        -1.219376         1.605124
 H         0.158130        -1.957193         0.154091
 H        -0.094481         1.915760         1.107921
 H        -0.957114         2.087202        -0.529667
 H        -2.821909         1.935773         1.101571
