19
Iteration:   130charge 0 multiplicity 1
 C        -3.806952         0.051857         2.144590
 C        -2.393948        -0.057562         1.575984
 C        -1.876735        -1.486516         1.087935
 C        -0.686345        -1.285776         0.011668
 C        -0.022026         0.023140         0.142257
 O         1.160066         0.185102         0.576407
 C        -0.946588         1.167272        -0.160356
 C        -1.946348         1.202964         0.962939
 O        -1.405955         0.759828         2.265487
 H        -3.753895        -0.465468         3.118058
 H        -4.001126         1.160980         2.348259
 H        -4.545224        -0.354350         1.356824
 H        -1.370803        -2.043263         1.877528
 H        -2.669666        -2.140375         0.726704
 H         0.020665        -2.027388         0.204714
 H        -1.061239        -1.432385        -1.062227
 H        -0.351373         2.050164        -0.308559
 H        -1.460620         0.882657        -1.113407
 H        -2.560511         2.146934         1.011689
