19
Iteration:  1846
 C        -3.889967        -0.381479         1.755215
 C        -2.505831        -0.049463         1.590241
 C        -1.349580        -1.120312         1.515403
 C        -0.693531        -1.281390         0.064906
 C         0.073490        -0.069325         0.003694
 O         1.245838        -0.013751        -0.380595
 C        -0.683232         1.135182         0.528267
 C        -2.035600         1.233130         1.053218
 O        -2.072340         1.081828         2.490814
 H        -4.027365        -1.143020         2.551860
 H        -4.394559         0.480004         2.073191
 H        -4.427533        -0.728743         0.861839
 H        -0.511512        -0.865054         2.188343
 H        -1.672126        -2.075989         2.035732
 H        -0.025971        -2.131539         0.051728
 H        -1.480414        -1.255217        -0.754591
 H         0.028552         1.300809         1.371324
 H        -0.380515         2.033205        -0.063969
 H        -2.732465         1.984220         0.569754
