19
Iteration:   172charge 0 multiplicity 1
 C        -3.957372        -0.145451         2.197095
 C        -2.581816        -0.037656         1.497257
 C        -1.982214        -1.398052         1.096968
 C        -0.623719        -1.260133         0.317267
 C         0.111430         0.063136         0.137563
 O         1.364113         0.064852         0.065696
 C        -0.685242         1.291834         0.027389
 C        -1.985590         1.265737         0.980935
 O        -1.572781         0.783433         2.299970
 H        -3.913359        -0.567054         3.151407
 H        -4.533812         0.852912         2.305255
 H        -4.586506        -0.919206         1.693904
 H        -1.981229        -2.040073         2.063184
 H        -2.736518        -1.992440         0.394969
 H         0.156377        -1.757813         0.783506
 H        -0.698448        -1.844221        -0.722733
 H        -0.138502         2.166568         0.276755
 H        -1.006083         1.226995        -1.116566
 H        -2.601701         2.231248         1.056854
