19
Iteration:    63
 C        -3.718790        -0.258259         2.276240
 C        -2.427298        -0.036893         1.421269
 C        -1.757521        -1.396457         1.156621
 C        -0.794271        -1.337390        -0.035503
 C         0.034669         0.017386         0.126394
 O         1.054500        -0.075352         0.717406
 C        -0.810440         1.297844        -0.153094
 C        -2.027708         1.302896         0.861669
 O        -1.451801         1.054179         2.119896
 H        -3.645108        -1.211196         2.750468
 H        -3.488350         0.349139         3.292259
 H        -4.757702         0.101054         1.956148
 H        -1.325780        -1.723314         2.095775
 H        -2.565471        -2.088270         0.923510
 H        -0.111007        -2.120594         0.004576
 H        -1.377814        -1.351624        -1.036197
 H        -0.206251         2.145708         0.059715
 H        -1.096293         1.385682        -1.251519
 H        -2.892682         2.065676         0.765443
