19
Iteration:  2442
 C        -4.022525        -0.509966         1.415225
 C        -2.540367        -0.099433         1.502557
 C        -1.577829        -1.264870         1.664263
 C        -0.334905        -1.206942         0.742338
 C         0.155411         0.054806         0.017694
 O         0.724293         0.144095        -1.075394
 C        -0.332988         1.329020         0.750814
 C        -1.824269         1.267642         1.177441
 O        -2.049843         0.871737         2.520665
 H        -4.110383        -1.495887         1.878745
 H        -4.489479         0.333827         1.914405
 H        -4.376395        -0.691754         0.390643
 H        -1.305999        -1.263294         2.696707
 H        -2.108355        -2.145109         1.434005
 H         0.530086        -1.487866         1.319148
 H        -0.572489        -1.950050        -0.001311
 H         0.176667         1.521520         1.835594
 H        -0.280921         2.287274         0.043305
 H        -2.395501         2.081061         0.879996
