19
Iteration:   777charge 0 multiplicity 1
 C        -3.659264        -0.200130         2.433894
 C        -2.414765        -0.062408         1.520676
 C        -1.948168        -1.323021         0.723927
 C        -0.519312        -1.334959         0.189781
 C        -0.027861         0.068711         0.273819
 O         1.138475         0.274210         0.551120
 C        -1.055269         1.078582        -0.159023
 C        -2.077323         1.210052         0.937963
 O        -1.412130         0.844695         2.151762
 H        -3.377519        -0.845528         3.314940
 H        -3.934529         0.872581         2.843572
 H        -4.424462        -0.794390         1.868014
 H        -1.875116        -2.148752         1.423217
 H        -2.677398        -1.615627         0.005402
 H         0.320153        -1.968424         0.580003
 H        -0.609652        -1.586902        -0.979855
 H        -0.491734         2.163110        -0.157679
 H        -1.369534         0.911946        -1.246268
 H        -2.598944         2.155576         0.855671
