19
Iteration:  3640
 C        -3.633022        -0.384700         2.297595
 C        -2.360754        -0.191038         1.495960
 C        -1.693168        -1.465693         1.004788
 C        -0.649457        -1.235796         0.001461
 C        -0.043685         0.250898         0.216402
 O         1.072926         0.434407         0.579403
 C        -1.105102         1.288008        -0.103259
 C        -2.087608         1.159276         0.974377
 O        -1.394798         0.700854         2.122433
 H        -3.556053        -0.158843         3.355596
 H        -4.400037         0.381703         2.013435
 H        -4.170951        -1.257882         2.091924
 H        -1.226259        -2.022432         1.803843
 H        -2.603139        -2.063168         0.705918
 H         0.243534        -1.886171         0.008815
 H        -1.125109        -1.266479        -0.929482
 H        -0.665373         2.366255        -0.140926
 H        -1.527334         0.966099        -1.074574
 H        -2.781828         2.013999         1.090826
