19
Iteration:  2887
 C        -3.585635        -0.415188         2.385490
 C        -2.454856        -0.125985         1.505567
 C        -1.908945        -1.445303         1.087976
 C        -0.726851        -1.230438         0.135274
 C         0.016074         0.232158         0.197408
 O         1.147560         0.292486         0.629406
 C        -0.887008         1.319349        -0.268725
 C        -2.059839         1.163467         0.759103
 O        -1.511369         0.809882         2.112703
 H        -2.976012        -0.876638         3.148028
 H        -3.984906         0.494329         2.764955
 H        -4.214568        -1.215100         1.912570
 H        -1.597667        -2.132025         1.843688
 H        -2.743809        -2.004766         0.645311
 H         0.019242        -1.905327         0.382934
 H        -1.020523        -1.279566        -0.920039
 H        -0.488444         2.354773        -0.050836
 H        -1.008389         1.211010        -1.272711
 H        -2.723486         2.029740         0.847827
