19
Iteration:  4268charge 0 multiplicity 1
 C        -3.813584        -0.247170         2.331292
 C        -2.480792        -0.141377         1.535590
 C        -1.867271        -1.370907         0.720340
 C        -0.284787        -1.280414         0.532704
 C        -0.024543         0.162145         0.091180
 O         1.149180         0.492986         0.078040
 C        -1.123851         1.201773        -0.123313
 C        -1.944619         1.216915         1.154713
 O        -1.513582         0.531478         2.301966
 H        -3.605162        -0.969712         3.149998
 H        -3.988399         0.722288         2.703333
 H        -4.619917        -0.580875         1.724631
 H        -2.321035        -2.256982         1.243036
 H        -2.380537        -1.297600        -0.233772
 H         0.444299        -1.527317         1.279382
 H        -0.054955        -2.016444        -0.285725
 H        -0.726582         2.166567        -0.180948
 H        -1.779449         0.963617        -0.999243
 H        -2.503079         2.198217         1.400809
