19
Iteration:   785
 C        -3.628739        -0.167501         2.395590
 C        -2.498031        -0.085979         1.474010
 C        -1.950657        -1.362553         0.737996
 C        -0.524135        -1.336264         0.217366
 C        -0.017640         0.063437         0.289794
 O         1.166683         0.308617         0.485135
 C        -1.070616         1.126623        -0.110750
 C        -2.064826         1.197239         0.951063
 O        -1.371217         0.826820         2.123552
 H        -3.464473        -0.826768         3.256609
 H        -3.931007         0.691644         2.845586
 H        -4.502739        -0.609039         1.828340
 H        -2.018189        -2.157152         1.557062
 H        -2.723020        -1.681501         0.020981
 H         0.142731        -1.977626         0.906606
 H        -0.426655        -1.700251        -0.797596
 H        -0.428255         2.095645         0.060956
 H        -1.453667         0.998098        -1.105213
 H        -2.702896         2.069846         1.023364
