19
Iteration:  2032charge 0 multiplicity 1
 C        -3.685056        -0.218455         2.427561
 C        -2.519863        -0.039773         1.400343
 C        -1.953169        -1.321085         0.759377
 C        -0.437902        -1.414704         0.367989
 C         0.001397         0.030191         0.046826
 O         1.063418         0.373748         0.491632
 C        -0.987629         1.074073        -0.214398
 C        -1.887452         1.267399         0.983756
 O        -1.474444         0.810096         2.264884
 H        -3.374001        -0.964859         3.257256
 H        -3.940153         0.852671         2.974439
 H        -4.655488        -0.505613         1.873289
 H        -2.255444        -2.244508         1.312493
 H        -2.446689        -1.598946        -0.207195
 H         0.167679        -1.741530         1.243341
 H        -0.500808        -2.023799        -0.550538
 H        -0.289332         1.958705        -0.466921
 H        -1.658283         0.920335        -1.168468
 H        -2.673654         2.165515         1.170425
