19
Iteration:  1272
 C        -3.756263        -0.158696         2.334092
 C        -2.476010        -0.075727         1.505766
 C        -2.030099        -1.322634         0.730225
 C        -0.485980        -1.210522         0.442463
 C         0.002887         0.125934         0.144559
 O         1.204203         0.350002         0.349766
 C        -1.038049         1.138369        -0.252957
 C        -1.905988         1.192246         1.003132
 O        -1.458400         0.562187         2.310440
 H        -3.744178        -1.090655         2.976975
 H        -3.849083         0.657443         3.070490
 H        -4.602670        -0.238214         1.620294
 H        -2.099648        -2.287341         1.347899
 H        -2.537032        -1.436572        -0.250491
 H         0.166806        -1.509137         1.321506
 H        -0.149250        -1.727566        -0.444529
 H        -0.701159         2.081254        -0.436575
 H        -1.615199         0.829620        -1.117398
 H        -2.364684         2.141464         1.260200
