19
Iteration:  2581charge 0 multiplicity 1
 C        -3.770670        -0.559027         1.502910
 C        -2.437036        -0.099404         1.718571
 C        -1.343168        -1.264082         1.768990
 C        -0.859089        -1.282279         0.272182
 C         0.052539         0.104854        -0.003372
 O         1.056971         0.193897        -0.720596
 C        -0.454399         1.253293         0.708840
 C        -1.888034         1.051765         1.057876
 O        -2.161642         1.135929         2.482343
 H        -4.158931        -1.516160         1.921669
 H        -4.501205         0.120651         1.719509
 H        -4.056072        -0.663679         0.388794
 H        -0.498925        -1.048571         2.449816
 H        -1.745327        -2.270995         2.088288
 H        -0.298553        -2.203508        -0.039935
 H        -1.687701        -0.973750        -0.418676
 H         0.117199         1.285034         1.559599
 H        -0.366879         2.161525         0.178317
 H        -2.592505         1.666027         0.431834
