19
Iteration:  2371
 C        -4.032768        -0.337620         1.300397
 C        -2.500403        -0.074831         1.635199
 C        -1.570513        -1.308823         1.536505
 C        -0.120581        -1.119857         0.917712
 C         0.127389         0.050444        -0.011856
 O         0.599350         0.122370        -1.161929
 C        -0.410130         1.246650         0.688169
 C        -1.814022         1.133953         1.204618
 O        -2.066374         0.859683         2.662356
 H        -4.376138        -1.356185         1.486001
 H        -4.500093         0.534920         1.885412
 H        -4.167025        -0.172591         0.226232
 H        -1.479061        -1.830692         2.542255
 H        -2.224140        -1.915146         0.820348
 H         0.613998        -0.895378         1.731223
 H         0.105299        -2.068545         0.403411
 H         0.309341         1.238330         1.546497
 H        -0.208110         2.087876         0.091484
 H        -2.625374         1.869052         0.777960
