19
Iteration:   482
 C        -3.734710        -0.373015         1.101769
 C        -2.331401        -0.082494         1.708669
 C        -1.224497        -1.229659         1.891818
 C        -0.601709        -1.331390         0.560855
 C        -0.071548         0.014792        -0.002586
 O         0.553775         0.078961        -1.053305
 C        -0.221634         1.165060         0.946421
 C        -1.672993         1.245396         1.168768
 O        -2.450420         1.114721         2.478833
 H        -4.301354        -1.158277         1.710262
 H        -4.331133         0.439267         1.344552
 H        -3.687265        -0.502785        -0.043978
 H        -0.411298        -1.071586         2.698963
 H        -1.788837        -2.233411         2.138044
 H         0.306764        -1.985741         0.665101
 H        -1.290144        -1.808208        -0.035773
 H         0.164261         0.816530         1.897162
 H         0.351821         2.022233         0.648221
 H        -2.256191         1.773841         0.426323
