19
Iteration:   843charge 0 multiplicity 1
 C        -3.976172        -0.164360         2.136184
 C        -2.548019        -0.100128         1.564163
 C        -1.937758        -1.311754         0.805792
 C        -0.430131        -1.236015         0.614675
 C         0.118462         0.149128         0.051121
 O         1.331265         0.328392        -0.087356
 C        -1.033710         1.150572         0.019796
 C        -1.946900         1.192528         1.200679
 O        -1.467042         0.580048         2.354525
 H        -4.114359        -1.056564         2.772661
 H        -4.170010         0.867584         2.681021
 H        -4.776878        -0.163932         1.353048
 H        -2.208383        -2.179868         1.427023
 H        -2.389109        -1.487491        -0.164736
 H        -0.016072        -1.449184         1.617303
 H        -0.062407        -2.186780        -0.014254
 H        -0.663118         2.249587        -0.351505
 H        -1.669013         0.882445        -0.913118
 H        -2.535214         2.111230         1.398899
