19
Iteration:  2021
 C        -3.664874        -0.233875         2.400539
 C        -2.496731        -0.011301         1.448616
 C        -1.990083        -1.352718         0.818567
 C        -0.495700        -1.410726         0.315933
 C         0.030263         0.000270         0.081913
 O         1.125252         0.384670         0.497819
 C        -0.972835         1.132194        -0.295927
 C        -1.918714         1.238345         0.970686
 O        -1.541611         0.806755         2.293976
 H        -3.409932        -1.193357         2.979270
 H        -3.679233         0.712141         3.136531
 H        -4.699495        -0.444478         1.941735
 H        -2.088589        -2.062048         1.648472
 H        -2.689020        -1.493505        -0.047154
 H         0.264992        -1.898399         0.976371
 H        -0.341033        -2.066743        -0.570096
 H        -0.460495         2.157956        -0.370521
 H        -1.583558         0.853372        -1.240372
 H        -2.390413         2.316872         0.794795
