19
Iteration:  1817
 C        -3.858764        -0.578792         1.584986
 C        -2.511007        -0.064005         1.738599
 C        -1.475620        -1.229793         1.687010
 C        -0.814532        -1.218567         0.243854
 C         0.123374        -0.015227        -0.020835
 O         1.173113        -0.061422        -0.630720
 C        -0.426114         1.391220         0.599135
 C        -1.838519         1.214197         1.061906
 O        -2.198505         1.138241         2.485969
 H        -4.107945        -1.353055         2.305006
 H        -4.548368         0.378116         1.859736
 H        -4.201381        -0.914774         0.634149
 H        -0.585296        -1.117199         2.395855
 H        -2.099111        -2.197837         1.838911
 H        -0.214163        -2.169023         0.191729
 H        -1.604195        -1.183526        -0.515157
 H         0.335715         1.550072         1.326291
 H        -0.293192         2.244144        -0.109363
 H        -2.521986         1.833438         0.432947
