19
Iteration:  4121
 C        -3.968919        -0.429213         1.769212
 C        -2.507190        -0.117030         1.536930
 C        -1.679308        -1.379557         0.965724
 C        -0.203329        -1.055041         0.912684
 C         0.138378         0.204236         0.026850
 O         0.877717         0.162415        -0.955486
 C        -0.731464         1.439898         0.416368
 C        -1.883969         1.250563         1.373413
 O        -1.869997         0.551533         2.655009
 H        -4.044089        -1.099648         2.643611
 H        -4.584525         0.463196         1.903775
 H        -4.209380        -1.135528         0.909880
 H        -1.804392        -2.268208         1.722485
 H        -2.230429        -1.621967         0.061575
 H        -0.026896        -0.613299         1.951602
 H         0.432605        -1.940781         0.833406
 H         0.082242         2.114083         0.737910
 H        -1.069111         1.842666        -0.537794
 H        -2.499041         2.146754         1.336201
