19
Iteration:   274
 C        -4.093654        -0.026541         1.585220
 C        -2.544615        -0.050755         1.448033
 C        -1.703586        -1.377028         1.031576
 C        -0.209589        -1.014558         1.111533
 C         0.139212         0.071224         0.090847
 O         0.829669        -0.254788        -0.830797
 C        -0.610758         1.446734         0.327938
 C        -1.803694         1.201236         1.335567
 O        -1.825119         0.587814         2.600366
 H        -4.477516        -0.922997         2.170826
 H        -4.408944         0.831009         2.047732
 H        -4.432658         0.108092         0.510156
 H        -1.846131        -2.129853         1.846022
 H        -1.955313        -1.788341         0.032734
 H        -0.225730        -0.651730         2.167226
 H         0.617850        -1.679709         1.014943
 H         0.068492         2.214427         0.843601
 H        -1.029438         1.806535        -0.623986
 H        -2.321917         2.137114         1.281177
