19
Iteration:  2585charge 0 multiplicity 1
 C        -3.814974        -0.569475         1.488299
 C        -2.419473        -0.101414         1.679401
 C        -1.328467        -1.281737         1.774472
 C        -0.846371        -1.256016         0.298299
 C         0.049193         0.109909         0.041538
 O         1.052883         0.162250        -0.724823
 C        -0.475836         1.275521         0.681447
 C        -1.911560         1.070556         1.044025
 O        -2.128848         1.102296         2.477660
 H        -4.075102        -1.532691         1.877618
 H        -4.532749         0.250182         1.916586
 H        -4.053102        -0.652638         0.443151
 H        -0.492207        -0.997966         2.404199
 H        -1.724785        -2.184446         2.118034
 H        -0.318794        -2.057318        -0.116863
 H        -1.663241        -0.939688        -0.352097
 H         0.045107         1.263632         1.700640
 H        -0.280492         2.286810         0.160103
 H        -2.581649         1.653777         0.489915
