19
Iteration:  3607
 C        -3.746156        -0.330174         2.404239
 C        -2.384189        -0.200370         1.627800
 C        -1.633337        -1.443764         0.992165
 C        -0.580932        -1.224315        -0.157702
 C         0.013223         0.217194         0.048895
 O         1.078322         0.431846         0.599636
 C        -1.031750         1.237091        -0.152177
 C        -2.025839         1.110111         0.947261
 O        -1.566264         0.746770         2.263634
 H        -3.568323        -0.253448         3.468702
 H        -4.262064         0.590989         2.010922
 H        -4.318992        -1.183469         2.227373
 H        -1.117278        -2.008847         1.781163
 H        -2.466468        -2.128650         0.638376
 H         0.249119        -1.956396        -0.143910
 H        -1.030558        -1.317426        -1.091353
 H        -0.658017         2.346152        -0.113518
 H        -1.399852         1.065204        -1.159400
 H        -2.794378         1.888321         0.851792
