19
Iteration:  1795
 C        -3.789572        -0.490240         1.416973
 C        -2.438696        -0.055022         1.588473
 C        -1.392860        -1.235877         1.730224
 C        -0.687636        -1.162808         0.434058
 C         0.081269        -0.002520         0.116289
 O         0.917731        -0.106805        -0.770286
 C        -0.413465         1.339676         0.703349
 C        -1.885660         1.233098         1.041394
 O        -2.149792         1.067180         2.521960
 H        -4.086870        -1.126718         2.260548
 H        -4.651334         0.337377         1.255322
 H        -3.927448        -1.122046         0.563994
 H        -0.759576        -1.128979         2.670301
 H        -2.043527        -2.189698         1.740738
 H        -0.092801        -2.073382         0.175123
 H        -1.573874        -1.044944        -0.159008
 H         0.123473         1.820675         1.489298
 H        -0.186715         2.028538        -0.156139
 H        -2.632414         1.901275         0.542184
