19
Iteration:  3716
 C        -3.775831        -0.396023         2.159535
 C        -2.441984        -0.242013         1.589408
 C        -1.812877        -1.463828         1.020603
 C        -0.434392        -1.175575         0.289348
 C         0.100839         0.210233         0.194781
 O         1.255355         0.424293        -0.027541
 C        -1.021431         1.307351         0.052047
 C        -2.060448         1.113190         1.023396
 O        -1.673289         0.777437         2.399607
 H        -3.739506        -1.102576         2.997029
 H        -3.912521         0.582393         2.628496
 H        -4.597181        -0.648167         1.549175
 H        -1.700612        -2.267188         1.742419
 H        -2.479468        -1.817653         0.230204
 H         0.389494        -1.901596         0.519121
 H        -0.707744        -1.251795        -0.803648
 H        -0.600890         2.367036         0.019992
 H        -1.442020         1.139445        -0.885823
 H        -3.006677         1.723825         0.898491
