19
Iteration:  3325charge 0 multiplicity 1
 C        -3.705040        -0.586340         1.211737
 C        -2.347097        -0.081821         1.632282
 C        -1.275642        -1.119818         1.816359
 C        -0.571863        -1.278810         0.449605
 C        -0.057592         0.049832        -0.026922
 O         0.709043         0.213568        -0.941461
 C        -0.413471         1.292025         0.831898
 C        -1.885038         1.191796         1.231753
 O        -2.278870         0.918239         2.599314
 H        -4.095799        -1.203123         1.998889
 H        -4.419658         0.280264         0.883180
 H        -3.619159        -1.167704         0.294555
 H        -0.447929        -0.704448         2.354399
 H        -1.589971        -2.136056         2.194219
 H         0.119103        -2.101650         0.547213
 H        -1.236556        -1.546485        -0.368383
 H         0.204451         1.240155         1.679773
 H        -0.095671         2.139011         0.282073
 H        -2.516220         1.780890         0.623994
