19
Iteration:  2451charge 0 multiplicity 1
 C        -4.007903        -0.471923         1.415814
 C        -2.501262        -0.090131         1.493502
 C        -1.526982        -1.294490         1.647471
 C        -0.320536        -1.230484         0.715004
 C         0.031766         0.103882        -0.033692
 O         0.772290         0.131006        -1.024228
 C        -0.364364         1.310348         0.727428
 C        -1.850009         1.202918         1.207054
 O        -2.089750         0.935019         2.551268
 H        -4.191066        -1.285308         2.143965
 H        -4.604096         0.296325         1.761664
 H        -4.324242        -0.699253         0.353070
 H        -1.254110        -1.333949         2.683858
 H        -2.059311        -2.206749         1.434604
 H         0.594353        -1.490963         1.135503
 H        -0.346439        -2.016912        -0.030589
 H         0.316426         1.285096         1.664065
 H        -0.037604         2.244972         0.190131
 H        -2.418449         2.078003         0.921821
