19
Iteration:   634
 C        -3.917378        -0.414666         1.944231
 C        -2.442470        -0.018196         1.579210
 C        -1.619299        -1.329627         1.332389
 C        -0.604065        -1.221286         0.197735
 C         0.042531         0.063604         0.091751
 O         1.245785        -0.030547        -0.146300
 C        -0.726359         1.342445         0.174043
 C        -2.029951         1.280852         1.076547
 O        -1.807981         0.953360         2.446052
 H        -4.018074        -1.355868         2.538056
 H        -4.278312         0.447662         2.384483
 H        -4.658382        -0.459672         1.049949
 H        -1.235790        -1.540057         2.325620
 H        -2.214686        -2.140774         1.035311
 H         0.208505        -1.995289         0.334874
 H        -1.116216        -1.510262        -0.759226
 H        -0.045429         2.159865         0.328939
 H        -1.186625         1.489492        -0.794148
 H        -2.739280         1.987867         0.803638
