19
Iteration:  3272
 C        -3.805682        -0.510542         1.238722
 C        -2.447416        -0.132872         1.534032
 C        -1.458488        -1.287633         1.823340
 C        -0.331252        -1.201470         0.705122
 C         0.050772         0.098527        -0.010363
 O         0.551643         0.253434        -1.092262
 C        -0.299511         1.301352         0.805321
 C        -1.864956         1.147644         1.191038
 O        -2.208157         0.892983         2.548404
 H        -4.110724        -1.502232         1.437456
 H        -4.432593         0.106101         2.050016
 H        -4.191581        -0.253982         0.255997
 H        -0.889118        -1.193138         2.784499
 H        -1.926136        -2.329654         1.636838
 H         0.556193        -1.438255         1.373348
 H        -0.372384        -1.938376        -0.041770
 H         0.461932         1.349598         1.743621
 H        -0.168525         2.187100         0.160890
 H        -2.430626         1.979703         0.616644
