19
Iteration:  3071
 C        -3.923497        -0.449679         1.797243
 C        -2.498291        -0.090795         1.553748
 C        -1.771190        -1.309563         1.136041
 C        -0.264221        -1.180514         0.750397
 C         0.135567         0.093772         0.101139
 O         0.999158         0.166057        -0.750079
 C        -0.598142         1.373142         0.513792
 C        -1.900946         1.257497         1.086204
 O        -1.979680         0.763341         2.506144
 H        -3.964767        -1.098155         2.669516
 H        -4.535764         0.391879         1.964526
 H        -4.612607        -0.983412         1.134379
 H        -1.942507        -2.052781         1.921067
 H        -2.437915        -1.704535         0.283154
 H         0.313016        -1.241041         1.680050
 H        -0.022949        -2.122872         0.223227
 H         0.158115         1.927533         1.129378
 H        -0.662099         1.890281        -0.504894
 H        -2.611863         2.081974         0.910883
