19
Iteration:  4452charge 0 multiplicity 1
 C        -3.879336        -0.448364         2.044793
 C        -2.450305        -0.124303         1.639084
 C        -1.615703        -1.405351         1.278153
 C        -0.624108        -1.287435         0.062452
 C         0.100993         0.158331         0.113855
 O         1.291777         0.282160        -0.133701
 C        -0.887482         1.308715         0.168612
 C        -2.140117         1.141832         1.048839
 O        -1.656731         0.945452         2.439122
 H        -3.948196        -1.272544         2.867008
 H        -4.645566         0.300205         2.341197
 H        -4.289883        -1.068346         1.233583
 H        -1.106965        -1.767813         2.207829
 H        -2.340712        -2.114813         1.007842
 H         0.095952        -2.066486         0.045499
 H        -1.282408        -1.160958        -0.787272
 H        -0.414540         2.117534         0.641253
 H        -1.177135         1.635815        -0.862781
 H        -2.933636         1.928403         0.941402
