19
Iteration:  4116
 C        -4.002575        -0.440042         1.750224
 C        -2.547857        -0.084703         1.517379
 C        -1.634499        -1.380182         1.000932
 C        -0.182270        -1.045187         0.979355
 C         0.147723         0.210470         0.057958
 O         0.834372         0.187387        -1.000836
 C        -0.693155         1.419265         0.398748
 C        -1.840650         1.239091         1.371376
 O        -1.873057         0.513354         2.654204
 H        -4.087738        -1.016328         2.720799
 H        -4.672578         0.431837         1.827268
 H        -4.272519        -1.116856         0.976882
 H        -1.840698        -2.192262         1.607743
 H        -2.153504        -1.570346         0.024267
 H        -0.056613        -0.695159         1.982883
 H         0.341359        -2.003350         0.817099
 H         0.179021         2.078086         0.643809
 H        -1.189110         1.951901        -0.460566
 H        -2.447299         2.171517         1.263861
