19
Iteration:  4587
 C        -3.970972        -0.530653         1.800008
 C        -2.440150        -0.148037         1.636176
 C        -1.361704        -1.144933         1.535803
 C        -0.618486        -1.198119         0.250794
 C         0.155712         0.092022         0.022433
 O         1.171920         0.042038        -0.584354
 C        -0.714503         1.403745         0.387216
 C        -2.097294         1.216265         1.114834
 O        -2.010480         0.858728         2.543017
 H        -4.017939        -1.550426         1.375292
 H        -4.277160        -0.600020         2.869479
 H        -4.488773         0.060498         0.982949
 H        -0.643496        -0.791589         2.290387
 H        -1.687722        -2.175942         1.830827
 H         0.131201        -2.039576         0.355029
 H        -1.056075        -1.434118        -0.711091
 H        -0.184462         2.053142         1.162098
 H        -0.795171         2.135080        -0.411584
 H        -2.852068         1.928840         0.731540
