19
Iteration:  2111charge 0 multiplicity 1
 C        -3.829375        -0.149821         2.168192
 C        -2.474869        -0.063209         1.506196
 C        -1.902692        -1.339612         0.882568
 C        -0.395878        -1.370436         0.454496
 C         0.093847         0.011965        -0.001863
 O         1.256842         0.333493         0.124673
 C        -0.984684         1.239117        -0.068883
 C        -1.978999         1.261984         1.075041
 O        -1.652958         0.662771         2.415937
 H        -3.582304        -0.490140         3.218411
 H        -4.203556         0.967442         2.421150
 H        -4.692152        -0.775715         1.906478
 H        -2.063284        -2.191458         1.551542
 H        -2.566504        -1.606418         0.012468
 H         0.266604        -1.701775         1.265789
 H        -0.249286        -2.169450        -0.338510
 H        -0.386758         2.060759        -0.176540
 H        -1.568922         1.163665        -1.109908
 H        -2.781206         2.008314         1.203409
