19
Iteration:   688charge 0 multiplicity 1
 C        -3.835948        -0.110171         2.185262
 C        -2.443275        -0.159223         1.560106
 C        -1.711741        -1.463921         1.206460
 C        -0.721703        -1.196267         0.050265
 C         0.015465         0.135862         0.119240
 O         1.206648         0.203835         0.390758
 C        -0.886069         1.279444        -0.143886
 C        -1.950557         1.091629         0.933056
 O        -1.549623         0.790398         2.271711
 H        -3.874551        -0.680692         3.145769
 H        -4.078669         0.843524         2.528898
 H        -4.604618        -0.645894         1.541339
 H        -1.258511        -1.854842         2.116021
 H        -2.391664        -2.191879         0.898351
 H         0.046692        -2.048859         0.097449
 H        -1.265039        -1.279455        -0.966322
 H        -0.359082         2.231121         0.169563
 H        -1.371530         1.329594        -1.116480
 H        -2.784939         1.745392         0.859444
