19
Iteration:  1749charge 0 multiplicity 1
 C        -3.896606        -0.326297         1.186378
 C        -2.408349        -0.047587         1.664056
 C        -1.377925        -1.107232         1.838323
 C        -0.382122        -1.348361         0.610374
 C        -0.030592        -0.083749        -0.098560
 O         0.754258         0.119478        -1.028164
 C        -0.358303         1.055617         0.780403
 C        -1.759687         1.214363         1.202965
 O        -2.317072         1.059136         2.580055
 H        -4.599629        -0.450504         2.063070
 H        -4.286424         0.512290         0.608086
 H        -4.132096        -1.181271         0.529691
 H        -0.830115        -0.941878         2.826448
 H        -2.035201        -2.093912         2.014486
 H         0.551380        -1.614842         1.077316
 H        -0.820784        -2.039793        -0.081734
 H         0.345625         0.939911         1.546114
 H        -0.081946         2.046599         0.398950
 H        -2.421907         1.973367         0.745852
