19
Iteration:   198
 C        -3.926402        -0.153222         2.070262
 C        -2.527530        -0.009257         1.606082
 C        -1.963138        -1.257598         0.950704
 C        -0.478833        -1.298656         0.553451
 C         0.237243        -0.024845         0.169519
 O         1.321711        -0.022605        -0.264663
 C        -0.751558         1.278046         0.119625
 C        -1.981746         1.208457         1.017351
 O        -1.798306         0.884283         2.440880
 H        -3.899809        -0.792291         3.094771
 H        -4.401340         0.743344         2.323663
 H        -4.593501        -0.843547         1.359406
 H        -2.113817        -2.050875         1.661489
 H        -2.577442        -1.487562         0.147838
 H         0.214994        -1.852136         1.301857
 H        -0.302570        -1.875379        -0.382286
 H        -0.113166         2.122475         0.569872
 H        -1.136796         1.519107        -0.854979
 H        -2.587913         2.096002         0.901355
