19
Iteration:   366charge 0 multiplicity 1
 C        -3.906128        -0.206020         1.192540
 C        -2.395223        -0.063498         1.357889
 C        -1.519267        -1.364443         1.568571
 C        -0.045784        -1.275640         1.029827
 C         0.056139        -0.014610         0.115794
 O         0.184415         0.072038        -1.113163
 C        -0.158891         1.194875         0.893969
 C        -1.792663         1.240139         1.169913
 O        -2.127921         0.936700         2.517640
 H        -4.352146        -0.622616         2.099551
 H        -4.564141         0.820016         1.102038
 H        -4.226253        -0.698051         0.298887
 H        -1.654336        -1.549755         2.586064
 H        -1.880678        -2.152913         1.017798
 H         0.673130        -0.967699         1.783967
 H         0.350695        -2.238049         0.539079
 H         0.146621         1.255362         1.957493
 H         0.188471         2.069858         0.293123
 H        -2.332887         2.094642         0.667607
