19
Iteration:  3661
 C        -3.692827        -0.469098         2.331015
 C        -2.466401        -0.152153         1.577999
 C        -1.782581        -1.478696         1.051748
 C        -0.614698        -1.170477         0.095304
 C         0.003050         0.216046         0.070042
 O         1.089897         0.440614         0.483827
 C        -1.006070         1.399960        -0.281013
 C        -1.982849         1.155851         0.972098
 O        -1.487662         0.674182         2.270852
 H        -3.461034        -0.439169         3.373294
 H        -4.578133         0.217079         2.235906
 H        -4.033172        -1.388441         2.054895
 H        -1.428037        -2.163751         1.808807
 H        -2.395656        -2.128489         0.436194
 H         0.233341        -1.853280         0.342720
 H        -0.880080        -1.462005        -0.923262
 H        -0.409875         2.353359        -0.031290
 H        -1.259121         1.378006        -1.279363
 H        -2.758563         1.925633         0.904334
