19
Iteration:   643charge 0 multiplicity 1
 C        -3.886475        -0.359725         1.974017
 C        -2.506995        -0.087038         1.566431
 C        -1.660657        -1.283267         1.257538
 C        -0.638342        -1.276528         0.156141
 C         0.100431         0.048577         0.113403
 O         1.292782         0.020795        -0.062920
 C        -0.821918         1.302094         0.159742
 C        -2.021530         1.225750         1.041992
 O        -1.747075         0.999630         2.441608
 H        -3.998707        -1.283582         2.585237
 H        -4.174157         0.374208         2.627216
 H        -4.516582        -0.555567         1.069429
 H        -1.153083        -1.538527         2.193908
 H        -2.332319        -2.064468         1.149992
 H         0.172230        -2.090046         0.231667
 H        -1.182463        -1.389999        -0.861076
 H        -0.271448         2.297512         0.353263
 H        -1.267859         1.306378        -0.826439
 H        -2.622387         2.065619         0.980374
