19
Iteration:  4236
 C        -3.823767        -0.379993         2.063607
 C        -2.435885        -0.174166         1.661913
 C        -1.998315        -1.382894         0.857465
 C        -0.414239        -1.165469         0.573252
 C         0.039461         0.201679         0.116683
 O         1.231114         0.465732        -0.159432
 C        -1.086573         1.161920         0.037329
 C        -2.011715         1.143586         1.184601
 O        -1.385140         0.698907         2.378486
 H        -4.122019        -1.447490         2.288334
 H        -4.121142         0.165325         2.901250
 H        -4.445070        -0.110112         1.251946
 H        -2.105904        -2.312894         1.465717
 H        -2.617057        -1.527435        -0.087605
 H         0.075273        -1.423423         1.494080
 H        -0.249624        -1.823375        -0.301315
 H        -0.711342         2.185368        -0.001745
 H        -1.556524         1.070167        -1.002246
 H        -2.737832         2.024758         1.340985
