19
Iteration:  4964
 C        -3.912505        -0.711290         1.457111
 C        -2.425276        -0.129824         1.692966
 C        -1.323970        -1.177092         1.742425
 C        -0.572847        -1.212278         0.343457
 C         0.123946         0.040819        -0.075592
 O         0.805235         0.214940        -1.061078
 C        -0.353996         1.229714         0.886461
 C        -1.839745         1.083122         1.179920
 O        -2.270473         1.199291         2.590043
 H        -4.342224        -0.534433         2.539659
 H        -4.571673        -0.146994         0.877589
 H        -3.795474        -1.800466         1.092775
 H        -0.586802        -0.918201         2.478046
 H        -1.683336        -2.201306         1.846942
 H         0.300154        -1.867781         0.549242
 H        -1.238797        -1.618187        -0.439895
 H         0.055265         1.341648         1.910639
 H        -0.400504         2.196823         0.207621
 H        -2.514480         1.742197         0.519484
