19
Iteration:  4758charge 0 multiplicity 1
 C        -3.868918        -0.658550         1.401044
 C        -2.355451        -0.100051         1.629184
 C        -1.271247        -1.173154         1.806129
 C        -0.565738        -1.310040         0.510049
 C         0.089312         0.060357         0.044799
 O         0.737450         0.172761        -1.000029
 C        -0.403488         1.326046         0.755872
 C        -1.869949         1.220853         1.111982
 O        -2.262782         1.016188         2.543777
 H        -3.856911        -1.246602         0.446862
 H        -4.138180        -1.138311         2.285813
 H        -4.598341         0.155334         1.337476
 H        -0.520361        -0.718616         2.541452
 H        -1.786845        -2.085640         2.031983
 H         0.123537        -2.121021         0.444799
 H        -1.390558        -1.629676        -0.179306
 H         0.308771         1.587043         1.504249
 H        -0.120929         2.094814        -0.120100
 H        -2.546160         1.984787         0.669163
