19
Iteration:  4394
 C        -3.918478        -0.281078         2.187929
 C        -2.438060        -0.137465         1.631984
 C        -1.758972        -1.422868         1.109861
 C        -0.566180        -1.236720         0.132342
 C         0.110461         0.158159         0.153856
 O         1.295417         0.462718         0.055340
 C        -0.988824         1.232109         0.060403
 C        -2.142311         1.138494         1.084410
 O        -1.492649         0.657895         2.280365
 H        -3.902481        -0.097363         3.224025
 H        -4.568328         0.528149         1.709929
 H        -4.379528        -1.247946         1.888174
 H        -1.302498        -1.794835         1.991128
 H        -2.567670        -2.171520         0.833680
 H         0.022813        -2.211308         0.233485
 H        -0.818840        -1.393050        -0.906637
 H        -0.395416         2.231673        -0.005427
 H        -1.480656         1.170421        -0.970232
 H        -2.854433         1.937760         1.097167
