19
Iteration:  2666
 C        -3.971400        -0.321309         1.528130
 C        -2.489142        -0.160672         1.648244
 C        -1.547261        -1.365291         1.579469
 C        -0.476074        -1.238252         0.457722
 C         0.120998         0.099069         0.110254
 O         1.059262         0.194006        -0.677155
 C        -0.682597         1.337862         0.423848
 C        -2.008014         1.122084         1.146864
 O        -1.897710         0.887324         2.561372
 H        -4.281705        -0.842469         2.461236
 H        -4.311628         0.681546         1.570448
 H        -4.126155        -0.813518         0.575586
 H        -0.945327        -1.471423         2.491214
 H        -2.093759        -2.360030         1.443323
 H         0.347915        -2.033190         0.568640
 H        -0.798509        -1.525257        -0.526217
 H         0.045285         2.033894         1.095296
 H        -0.778004         1.879641        -0.501562
 H        -2.858934         1.753925         0.723804
