19
Iteration:  4555
 C        -3.852728        -0.558345         1.750849
 C        -2.353561        -0.147303         1.658481
 C        -1.396259        -1.331756         1.583381
 C        -0.756475        -1.206937         0.189359
 C         0.083369         0.083962        -0.033999
 O         1.249428         0.213785        -0.472295
 C        -0.698240         1.306964         0.312737
 C        -1.950880         1.198862         1.180484
 O        -2.076334         1.033117         2.562968
 H        -3.878381        -1.643191         1.661339
 H        -4.471444        -0.310297         2.688565
 H        -4.527940        -0.036573         1.002353
 H        -0.797330        -1.627213         2.441482
 H        -2.018676        -2.321683         1.525175
 H        -0.180496        -2.169472        -0.078899
 H        -1.617292        -1.253361        -0.505366
 H        -0.085661         2.174132         0.757536
 H        -1.094314         1.730495        -0.551445
 H        -2.846301         1.657888         0.701498
