19
Iteration:  4310charge 0 multiplicity 1
 C        -3.698524        -0.340426         2.426402
 C        -2.486672        -0.190392         1.610293
 C        -2.079418        -1.431241         0.804355
 C        -0.556814        -1.252544         0.446495
 C         0.054658         0.274065         0.220182
 O         1.279269         0.504070         0.148864
 C        -0.976396         1.294232        -0.122391
 C        -2.041539         1.132790         0.915011
 O        -1.427952         0.583959         2.202556
 H        -3.481797        -0.367643         3.527377
 H        -4.463917         0.499522         2.170820
 H        -4.188388        -1.317811         2.175517
 H        -2.404404        -2.495636         1.240083
 H        -2.564718        -1.269942        -0.124177
 H         0.009279        -1.763385         1.256944
 H        -0.324802        -1.593148        -0.616622
 H        -0.530150         2.244319        -0.173135
 H        -1.387671         1.066703        -1.125011
 H        -2.699926         2.038977         1.234235
