19
Iteration:  3604charge 0 multiplicity 1
 C        -3.751680        -0.331745         2.404989
 C        -2.386263        -0.223169         1.636059
 C        -1.615776        -1.455837         0.996413
 C        -0.603687        -1.219536        -0.150496
 C         0.021816         0.235481         0.048522
 O         1.066062         0.420886         0.580791
 C        -0.994705         1.253729        -0.160567
 C        -2.005911         1.128760         0.949343
 O        -1.592328         0.755672         2.266244
 H        -3.497068        -0.295258         3.432805
 H        -4.244384         0.578185         2.058710
 H        -4.255242        -1.249161         2.163110
 H        -1.208103        -1.981523         1.900635
 H        -2.324848        -2.055354         0.503559
 H         0.194601        -1.968052         0.008900
 H        -1.128279        -1.396919        -1.161733
 H        -0.707950         2.293055        -0.116846
 H        -1.395879         1.023025        -1.118350
 H        -2.820203         1.866027         0.892809
