19
Iteration:  4143charge 0 multiplicity 1
 C        -3.899722        -0.433508         1.820333
 C        -2.461812        -0.174580         1.586027
 C        -1.678674        -1.311549         0.999525
 C        -0.263797        -1.070889         0.783646
 C         0.023790         0.198201        -0.008235
 O         0.985115         0.145774        -0.738444
 C        -0.804050         1.432890         0.434614
 C        -2.052185         1.159336         1.236360
 O        -1.724564         0.647825         2.600622
 H        -4.104571        -1.260272         2.503781
 H        -4.232381         0.491704         2.308060
 H        -4.411186        -0.651268         0.833652
 H        -1.916141        -2.276694         1.565898
 H        -2.186619        -1.402470         0.046293
 H         0.333659        -0.976495         1.735200
 H         0.083123        -1.892612         0.170780
 H        -0.006600         2.011055         0.910873
 H        -1.111522         2.057014        -0.387942
 H        -2.831487         1.880889         1.068595
