19
Iteration:  4166charge 0 multiplicity 1
 C        -3.984687        -0.406218         1.988700
 C        -2.537018        -0.160665         1.644267
 C        -1.766364        -1.474716         0.992736
 C        -0.258195        -1.215152         0.680372
 C         0.123332         0.153105         0.111188
 O         1.036386         0.383152        -0.634025
 C        -0.743436         1.394701         0.329588
 C        -2.072498         1.172019         1.128900
 O        -1.671479         0.686683         2.467522
 H        -4.226070        -1.387901         2.300230
 H        -4.229853         0.302288         2.850113
 H        -4.579252        -0.215080         1.044396
 H        -1.960211        -2.300838         1.804039
 H        -2.385452        -1.711312         0.157836
 H         0.332344        -1.283660         1.640464
 H         0.077704        -1.884991        -0.127177
 H        -0.087394         2.153471         0.787597
 H        -0.993029         1.885107        -0.661043
 H        -2.768592         2.052613         1.134183
