19
Iteration:   812
 C        -3.727452        -0.168152         2.309397
 C        -2.482625        -0.126415         1.569302
 C        -2.027761        -1.429999         0.852555
 C        -0.568959        -1.305807         0.506820
 C         0.031817         0.205771         0.160716
 O         1.221114         0.381140         0.256012
 C        -0.934293         1.296881        -0.177196
 C        -1.931668         1.188312         0.912418
 O        -1.482132         0.541113         2.203687
 H        -3.722676        -1.010817         3.042460
 H        -4.045291         0.805127         2.966648
 H        -4.618465        -0.274734         1.673748
 H        -2.256588        -2.193743         1.555388
 H        -2.673749        -1.611792        -0.013496
 H         0.111367        -1.692327         1.247705
 H        -0.474727        -1.935926        -0.497308
 H        -0.380914         2.265883        -0.048532
 H        -1.370589         1.152845        -1.251145
 H        -2.534835         2.094207         1.153862
