19
Iteration:   352charge 0 multiplicity 1
 C        -3.825053        -0.255969         1.258721
 C        -2.356933        -0.029483         1.421541
 C        -1.641609        -1.312697         1.464267
 C        -0.150107        -1.178350         1.033060
 C         0.070805         0.000783         0.119666
 O         0.225084        -0.031016        -1.069688
 C        -0.233443         1.338105         0.891151
 C        -1.687555         1.263316         1.128679
 O        -2.133938         0.836094         2.467295
 H        -4.082301        -0.940122         2.136337
 H        -4.285135         0.720639         1.344155
 H        -4.069424        -0.811198         0.353732
 H        -1.592385        -1.703801         2.515436
 H        -2.193352        -2.092485         0.855613
 H         0.477378        -1.155310         1.986317
 H         0.108650        -2.053139         0.546040
 H         0.402681         1.319433         1.860690
 H         0.052099         2.170322         0.281248
 H        -2.280046         2.036824         0.711131
