19
Iteration:  4129charge 0 multiplicity 1
 C        -3.905469        -0.434685         1.770103
 C        -2.442860        -0.167082         1.569898
 C        -1.759685        -1.351121         0.963749
 C        -0.209127        -1.023643         0.845427
 C         0.082895         0.141132        -0.013164
 O         0.931581         0.142717        -0.881412
 C        -0.722919         1.443517         0.429506
 C        -1.972240         1.238867         1.356782
 O        -1.840946         0.607767         2.644277
 H        -4.014094        -1.153532         2.665771
 H        -4.509019         0.419583         1.935084
 H        -4.380847        -0.892057         0.882341
 H        -1.831882        -2.139677         1.646006
 H        -2.154508        -1.737256        -0.000774
 H         0.062296        -0.670450         1.838573
 H         0.521236        -1.795480         0.630719
 H        -0.160233         2.270711         0.933498
 H        -1.038262         1.782736        -0.514410
 H        -2.648433         2.019581         1.480313
