19
Iteration:   672
 C        -3.904561        -0.235106         2.142184
 C        -2.465940        -0.137612         1.679766
 C        -1.699810        -1.383929         1.252638
 C        -0.709027        -1.274826         0.042208
 C         0.089102         0.026840         0.068607
 O         1.292827         0.259503         0.227991
 C        -0.802087         1.222733        -0.020159
 C        -1.999066         1.190352         0.891523
 O        -1.661125         0.840855         2.342237
 H        -4.085992        -0.921555         2.970934
 H        -4.155914         0.801401         2.673965
 H        -4.506067        -0.423289         1.291571
 H        -1.184971        -1.868820         2.119996
 H        -2.562859        -2.119154         0.929264
 H        -0.083646        -2.102479        -0.165360
 H        -1.385548        -1.105672        -0.750643
 H        -0.208412         2.166895         0.036546
 H        -1.217876         1.182387        -1.076536
 H        -2.654362         2.166366         0.965603
