19
Iteration:  4436charge 0 multiplicity 1
 C        -3.833494        -0.427436         2.098579
 C        -2.406298        -0.224319         1.676120
 C        -1.645407        -1.394266         1.257358
 C        -0.627109        -1.203530         0.148120
 C         0.009281         0.148373        -0.001052
 O         1.224811         0.267546        -0.034842
 C        -0.876892         1.453413         0.099427
 C        -2.014838         1.190835         1.017053
 O        -1.735933         0.771087         2.389486
 H        -3.843534        -0.747091         3.099103
 H        -4.232837         0.572009         1.951740
 H        -4.423802        -1.076798         1.425034
 H        -1.134516        -1.789236         2.126752
 H        -2.328822        -2.292624         1.015415
 H         0.297269        -1.881347         0.322437
 H        -0.981145        -1.523231        -0.870296
 H        -0.182539         2.333237         0.449566
 H        -1.238200         1.705607        -0.925019
 H        -2.861914         1.851234         0.976621
