19
Iteration:  1191
 C        -4.006994        -0.318518         1.896652
 C        -2.509357        -0.028601         1.545859
 C        -1.899769        -1.302020         0.975551
 C        -0.380949        -1.101249         0.765026
 C         0.164142         0.097770         0.043066
 O         1.242965         0.084842        -0.593038
 C        -0.779119         1.389739         0.221110
 C        -1.938298         1.271503         1.258775
 O        -1.767022         0.567236         2.551190
 H        -3.818942        -1.228040         2.510229
 H        -4.599167         0.560455         2.325986
 H        -4.464412        -0.809384         1.018597
 H        -2.025428        -2.143196         1.627846
 H        -2.519647        -1.603316         0.117971
 H         0.046006        -1.032342         1.792948
 H         0.176840        -2.038994         0.436509
 H        -0.195940         2.339609         0.596603
 H        -1.222807         1.554856        -0.714105
 H        -2.630441         2.140453         1.261666
