19
Iteration:  1436charge 0 multiplicity 1
 C        -3.937320        -0.332857         1.713970
 C        -2.444829        -0.079968         1.625101
 C        -1.464079        -1.273620         1.510207
 C        -0.763670        -1.282977         0.185939
 C         0.099082        -0.013964         0.026126
 O         1.301226         0.025199        -0.226737
 C        -0.740698         1.313239         0.172956
 C        -1.961513         1.239184         1.151067
 O        -1.921541         0.950428         2.532978
 H        -4.256772        -0.979290         2.527018
 H        -4.393294         0.695490         1.995414
 H        -4.323110        -0.718532         0.776499
 H        -0.771756        -0.976422         2.328753
 H        -1.966972        -2.214382         1.736078
 H        -0.056496        -2.115495         0.067389
 H        -1.486681        -1.361262        -0.635756
 H        -0.040104         2.106369         0.410331
 H        -1.220131         1.560878        -0.827750
 H        -2.846951         1.845090         0.892103
