19
Iteration:  4644
 C        -3.832026        -0.549603         1.676192
 C        -2.387112        -0.166225         1.729138
 C        -1.382386        -1.289761         1.641892
 C        -0.497992        -1.205248         0.279101
 C         0.161330         0.113673        -0.001348
 O         1.066465         0.045301        -0.771759
 C        -0.685161         1.336863         0.621268
 C        -2.070233         1.078225         1.034596
 O        -2.150917         1.162562         2.517251
 H        -4.094727        -0.684546         0.666774
 H        -4.188793        -1.381417         2.407827
 H        -4.446912         0.271530         2.090436
 H        -0.871455        -1.315874         2.571059
 H        -2.110678        -2.187821         1.467253
 H         0.400891        -1.905682         0.316543
 H        -1.244768        -1.218543        -0.488125
 H        -0.191617         1.764230         1.609624
 H        -0.656563         2.102033        -0.053976
 H        -2.780018         1.704452         0.487922
