19
Iteration:  1635
 C        -3.678012        -0.208863         0.869924
 C        -2.302804        -0.044121         1.472895
 C        -1.350904        -1.197247         1.818772
 C        -0.148497        -1.356277         0.871490
 C        -0.063756        -0.057712         0.044799
 O         0.046325        -0.080141        -1.178057
 C        -0.170290         1.260584         1.021334
 C        -1.696154         1.297669         1.314428
 O        -2.362421         0.959779         2.553112
 H        -4.202284        -0.914939         1.424540
 H        -4.219220         0.756038         0.761002
 H        -3.507533        -0.536799        -0.128551
 H        -1.012954        -1.012693         2.848213
 H        -1.981743        -2.071817         1.971940
 H         0.774047        -1.348598         1.411996
 H        -0.315096        -2.259005         0.221557
 H         0.517586         0.973051         1.881768
 H         0.265737         2.236542         0.689015
 H        -2.243132         2.054871         0.716623
