19
Iteration:  1152charge 0 multiplicity 1
 C        -3.997830        -0.182998         1.559330
 C        -2.478131        -0.129126         1.570251
 C        -1.703155        -1.429627         1.088323
 C        -0.143498        -1.233422         0.865570
 C         0.114701         0.082889         0.120857
 O         0.809621         0.121241        -0.909598
 C        -0.627538         1.382318         0.560311
 C        -1.923541         1.237329         1.265942
 O        -1.861543         0.721770         2.628710
 H        -4.366650        -0.594498         2.546051
 H        -4.520744         0.713832         1.553797
 H        -4.381240        -0.894899         0.790524
 H        -1.934975        -2.370177         1.750490
 H        -2.039437        -1.756838         0.085062
 H         0.358297        -0.934337         1.837157
 H         0.368558        -2.057369         0.460017
 H         0.072774         1.927999         1.121335
 H        -0.739903         2.086050        -0.391522
 H        -2.738237         1.941100         1.148386
