19
Iteration:  2835
 C        -3.752504        -0.188741         2.239429
 C        -2.346669        -0.115100         1.603021
 C        -1.656874        -1.410537         1.035006
 C        -0.533687        -1.294513        -0.031127
 C        -0.025847         0.104525         0.104912
 O         1.143415         0.298097         0.582667
 C        -1.096399         1.151287        -0.226914
 C        -2.070925         1.174506         0.954690
 O        -1.533514         0.852036         2.355260
 H        -3.751580        -0.848773         3.037918
 H        -3.979756         0.904777         2.401977
 H        -4.316195        -0.550367         1.383208
 H        -1.191123        -2.049273         1.888367
 H        -2.407630        -2.121702         0.688366
 H         0.231922        -2.002202         0.059533
 H        -0.930992        -1.204290        -1.059151
 H        -0.675985         2.097962        -0.521511
 H        -1.868339         0.763606        -1.074117
 H        -2.911026         1.841627         0.855404
