19
Iteration:   182charge 0 multiplicity 1
 C        -4.001640        -0.201163         2.198248
 C        -2.566276        -0.021870         1.531880
 C        -1.956107        -1.302633         1.070729
 C        -0.546953        -1.247825         0.420355
 C         0.178287         0.063359         0.102256
 O         1.380850        -0.024755        -0.055376
 C        -0.729343         1.306724         0.083750
 C        -1.986613         1.237321         1.005348
 O        -1.670124         0.801742         2.327511
 H        -3.833639        -0.553606         3.147468
 H        -4.513791         0.823902         2.240798
 H        -4.602232        -0.771673         1.543280
 H        -1.958932        -2.122574         1.863230
 H        -2.704121        -1.619232         0.217500
 H         0.168724        -1.828839         0.946015
 H        -0.729019        -1.819397        -0.558790
 H        -0.118205         2.160232         0.270974
 H        -0.970036         1.425831        -1.051791
 H        -2.641554         2.144584         0.868663
