19
Iteration:  3766
 C        -3.921363        -0.403504         1.958662
 C        -2.505580        -0.216596         1.496695
 C        -1.724223        -1.401952         1.130924
 C        -0.341137        -1.173341         0.604317
 C         0.035573         0.196264         0.097224
 O         1.154298         0.423919        -0.411375
 C        -0.953454         1.350695         0.182472
 C        -1.993174         1.216538         1.200385
 O        -1.646792         0.604077         2.426730
 H        -4.105954        -1.474189         2.109997
 H        -4.189443         0.223745         2.898979
 H        -4.660773        -0.178815         1.139133
 H        -1.773649        -1.969262         2.122800
 H        -2.173737        -2.031658         0.279798
 H         0.367457        -1.417526         1.378215
 H        -0.174053        -1.852283        -0.224895
 H        -0.333360         2.229755         0.264060
 H        -1.414508         1.473904        -0.899584
 H        -2.665207         2.018631         1.419088
