19
Iteration:  1319charge 0 multiplicity 1
 C        -3.738808        -0.206216         2.290685
 C        -2.385855        -0.146064         1.574106
 C        -1.920699        -1.457708         0.853676
 C        -0.634406        -1.351479         0.067798
 C        -0.064098         0.057981         0.308180
 O         1.055595         0.408266         0.574930
 C        -0.945627         1.120503        -0.182523
 C        -2.002159         1.239524         0.990453
 O        -1.289805         0.815589         2.176847
 H        -3.726021        -0.435398         3.299685
 H        -3.975028         0.961560         2.344322
 H        -4.362725        -0.828597         1.705847
 H        -1.783748        -2.232158         1.670296
 H        -2.738981        -1.750176         0.110113
 H         0.068867        -2.109221         0.211117
 H        -0.960927        -1.343658        -1.052108
 H        -0.284865         2.013467        -0.177837
 H        -1.460520         1.123673        -1.184142
 H        -2.563757         2.226472         1.025970
