19
Iteration:  1156
 C        -4.050935        -0.222773         1.591989
 C        -2.485172        -0.123850         1.586939
 C        -1.709416        -1.431350         1.067745
 C        -0.161126        -1.203813         0.878554
 C         0.117444         0.052249         0.115877
 O         0.858943         0.145452        -0.877173
 C        -0.651632         1.351919         0.491449
 C        -1.890327         1.239220         1.299654
 O        -1.835975         0.727291         2.611530
 H        -4.359255        -0.621525         2.523062
 H        -4.736220         0.733224         1.584046
 H        -4.416356        -0.844856         0.796155
 H        -1.932889        -2.201041         1.730860
 H        -2.098465        -1.645125         0.069266
 H         0.364076        -0.969578         1.774578
 H         0.312607        -2.093200         0.313917
 H         0.104899         1.975845         1.141506
 H        -0.823899         2.021827        -0.377992
 H        -2.664813         2.016972         1.084586
