19
Iteration:  1029charge 0 multiplicity 1
 C        -3.797703        -0.162989         0.958790
 C        -2.355073        -0.130152         1.401140
 C        -1.436227        -1.289864         1.409354
 C         0.091229        -1.017673         1.130785
 C        -0.074346         0.078206         0.151138
 O        -0.148498         0.007043        -1.040244
 C        -0.292151         1.361788         0.836335
 C        -1.688314         1.179586         1.289775
 O        -2.003100         0.600875         2.652538
 H        -4.427762        -1.057437         1.091983
 H        -4.233552         0.796260         1.409735
 H        -3.869475        -0.136059        -0.116700
 H        -1.562097        -1.970972         2.379988
 H        -1.826081        -2.109649         0.702101
 H         0.672297        -0.829682         2.046311
 H         0.426557        -2.060313         0.767487
 H         0.580917         1.552007         1.554158
 H        -0.225546         2.167734         0.110658
 H        -2.376890         1.966720         0.902668
