19
Iteration:  4286charge 0 multiplicity 1
 C        -3.790545        -0.243707         2.423039
 C        -2.563894        -0.209635         1.550167
 C        -1.946721        -1.353253         0.703904
 C        -0.468983        -1.112279         0.429199
 C         0.097575         0.208963         0.072856
 O         1.287334         0.475582         0.158849
 C        -1.083899         1.186901        -0.139618
 C        -2.046417         1.104550         1.081021
 O        -1.414462         0.530596         2.294276
 H        -3.517238        -0.606580         3.406910
 H        -4.242807         0.861740         2.462123
 H        -4.600722        -0.959027         2.017043
 H        -1.910149        -2.339649         1.308182
 H        -2.521095        -1.531132        -0.223775
 H        -0.068219        -1.362415         1.468041
 H        -0.171031        -1.903982        -0.289444
 H        -0.677730         2.222595        -0.345633
 H        -1.691789         0.906691        -0.998904
 H        -2.761249         1.920272         1.289347
