19
Iteration:  1018
 C        -3.810474        -0.209112         0.971632
 C        -2.340493        -0.109943         1.366186
 C        -1.446710        -1.310606         1.465479
 C        -0.016569        -1.036063         1.152628
 C        -0.076633         0.083945         0.106534
 O        -0.086704         0.009368        -1.126967
 C        -0.222134         1.353050         0.830049
 C        -1.702514         1.205379         1.396796
 O        -2.013863         0.586827         2.586123
 H        -4.230187        -1.032940         1.547959
 H        -4.390315         0.715992         1.310816
 H        -3.905074        -0.210197        -0.098019
 H        -1.548123        -1.712061         2.568370
 H        -1.772559        -1.988082         0.618987
 H         0.428100        -0.571094         2.037663
 H         0.629977        -1.894881         0.745374
 H         0.466711         1.387414         1.744227
 H        -0.233044         2.211936         0.202399
 H        -2.347132         2.102038         1.266995
