19
Iteration:   409
 C        -3.694902        -0.265759         1.054656
 C        -2.299069        -0.091650         1.461119
 C        -1.488776        -1.327591         1.710374
 C        -0.233362        -1.277281         0.864098
 C         0.022518         0.028680         0.079073
 O         0.165184         0.009458        -1.108641
 C        -0.206682         1.288650         0.956363
 C        -1.698464         1.202044         1.186088
 O        -2.270378         1.000176         2.581155
 H        -4.332613        -0.600852         1.881804
 H        -4.206345         0.781061         0.661320
 H        -3.712022        -0.911345         0.206432
 H        -1.267797        -1.489555         2.740993
 H        -2.164143        -2.095274         1.409957
 H         0.589070        -1.465342         1.560734
 H        -0.297483        -2.092656         0.054781
 H         0.489058         1.083283         1.846196
 H         0.154544         2.269802         0.510556
 H        -2.280531         1.965848         0.592221
