19
Iteration:  4279
 C        -3.803614        -0.236481         2.395703
 C        -2.546915        -0.175159         1.507004
 C        -1.896060        -1.359645         0.718569
 C        -0.421053        -1.168601         0.480053
 C         0.071242         0.169449         0.032568
 O         1.243334         0.475396         0.145531
 C        -1.125674         1.186501        -0.124393
 C        -2.039479         1.143065         1.134690
 O        -1.441077         0.531653         2.307514
 H        -3.660027        -0.674705         3.411947
 H        -4.169312         0.730481         2.634496
 H        -4.633892        -0.751958         1.969031
 H        -1.993873        -2.402618         1.166158
 H        -2.265601        -1.511207        -0.289167
 H         0.146767        -1.368487         1.368497
 H        -0.005571        -1.758364        -0.384872
 H        -0.579103         2.039026        -0.382763
 H        -1.786475         1.010577        -1.013918
 H        -2.586549         2.149005         1.334234
