19
Iteration:  1518
 C        -3.894670        -0.456243         1.458465
 C        -2.449459        -0.056114         1.596708
 C        -1.437029        -1.180538         1.770270
 C        -0.593815        -1.351418         0.508296
 C         0.116834        -0.009998         0.053948
 O         0.846478         0.089578        -0.942353
 C        -0.325253         1.233007         0.833373
 C        -1.844907         1.199058         1.040907
 O        -2.203523         1.108266         2.421662
 H        -4.181028        -0.975175         2.442412
 H        -4.447150         0.443003         1.278861
 H        -4.089443        -1.129273         0.543219
 H        -0.937738        -1.063773         2.734907
 H        -2.023057        -2.138386         1.949821
 H         0.198450        -2.138864         0.511146
 H        -1.298129        -1.559427        -0.324833
 H         0.156192         1.073840         1.779067
 H         0.057665         2.133760         0.476404
 H        -2.454559         1.948764         0.559622
