19
Iteration:  2248
 C        -3.976211        -0.347186         1.660152
 C        -2.479174        -0.060269         1.475549
 C        -1.751555        -1.370696         1.060480
 C        -0.273055        -1.169670         0.948155
 C         0.065898         0.048934         0.053355
 O         0.905498         0.034508        -0.825750
 C        -0.605314         1.402123         0.469255
 C        -1.895161         1.337729         1.270316
 O        -1.836237         0.725809         2.597974
 H        -4.123695        -1.227030         2.303180
 H        -4.457455         0.593217         1.958605
 H        -4.239007        -0.666067         0.632230
 H        -2.039200        -2.184551         1.809358
 H        -2.267921        -1.771469         0.143547
 H        -0.010097        -0.876540         2.018556
 H         0.305848        -2.036360         0.586269
 H         0.247723         2.039798         1.021785
 H        -0.850522         1.935560        -0.484791
 H        -2.556906         2.213259         1.181569
