19
Iteration:  3047charge 0 multiplicity 1
 C        -3.999661        -0.314939         1.892463
 C        -2.567641        -0.171555         1.598705
 C        -1.711779        -1.448235         1.138965
 C        -0.248565        -1.277145         0.583696
 C         0.142122         0.054201         0.038347
 O         1.195640         0.242784        -0.609126
 C        -0.737180         1.389305         0.462419
 C        -2.053988         1.134919         1.069056
 O        -1.860659         0.960511         2.490731
 H        -4.296163        -1.246453         2.481963
 H        -4.420438         0.524600         2.291772
 H        -4.749086        -0.418407         1.090276
 H        -1.698294        -2.193953         2.012723
 H        -2.406291        -1.976577         0.409445
 H         0.447050        -1.669495         1.392759
 H        -0.205821        -2.026642        -0.203258
 H        -0.200033         1.697285         1.334970
 H        -0.686079         2.086483        -0.381943
 H        -2.870480         1.864585         0.835779
