19
Iteration:  2709charge 0 multiplicity 1
 C        -4.001820        -0.424382         1.878131
 C        -2.475410        -0.123293         1.495803
 C        -1.661831        -1.327931         1.388512
 C        -0.500451        -1.256388         0.428776
 C         0.148834         0.110068         0.083799
 O         1.197563         0.195424        -0.475085
 C        -0.701550         1.355872         0.328988
 C        -2.033016         1.212622         1.069673
 O        -1.869095         0.837641         2.451190
 H        -4.071055        -0.617524         3.006141
 H        -4.588865         0.537329         1.669200
 H        -4.414478        -1.258273         1.313103
 H        -1.298934        -1.409228         2.412109
 H        -2.240933        -2.230265         1.036451
 H         0.316890        -2.038813         0.736937
 H        -0.653756        -1.709223        -0.548959
 H        -0.033507         2.004490         1.094370
 H        -0.649736         1.842559        -0.622953
 H        -2.769340         2.077385         0.978447
