19
Iteration:  2901
 C        -3.660115        -0.363103         2.460039
 C        -2.481536        -0.152019         1.463155
 C        -1.873186        -1.450889         1.048251
 C        -0.677567        -1.161457         0.124546
 C         0.068029         0.181772         0.299439
 O         1.231489         0.285896         0.564554
 C        -0.934182         1.351282        -0.179019
 C        -2.096579         1.142596         0.811292
 O        -1.478444         0.769072         1.990082
 H        -3.400194        -0.865360         3.354754
 H        -4.304704         0.600061         2.656061
 H        -4.440283        -0.967113         2.034081
 H        -1.587572        -1.901995         2.089262
 H        -2.588253        -2.099164         0.554405
 H         0.095523        -1.887048         0.295971
 H        -1.034512        -1.334739        -0.910783
 H        -0.492778         2.298167        -0.122182
 H        -1.406359         1.087142        -1.196613
 H        -2.861403         1.901589         0.834199
