19
Iteration:  1575
 C        -3.659176        -0.363676         1.026008
 C        -2.273863        -0.051754         1.539724
 C        -1.459723        -1.274765         1.911567
 C        -0.485336        -1.330104         0.718036
 C         0.027878         0.012694         0.066250
 O         0.352720         0.016591        -1.130121
 C        -0.255477         1.281332         0.991757
 C        -1.721241         1.219256         1.205168
 O        -2.256575         1.119894         2.500804
 H        -4.219715        -0.937189         1.872433
 H        -4.303298         0.412890         0.780601
 H        -3.648455        -1.107610         0.150942
 H        -0.929288        -1.204062         2.842749
 H        -2.088844        -2.152560         1.847063
 H         0.513580        -1.889776         0.839582
 H        -0.806586        -1.910753        -0.154341
 H         0.172258         0.871669         1.926131
 H         0.106028         2.261248         0.673757
 H        -2.300619         1.851530         0.553924
