19
Iteration:  1710
 C        -3.839901        -0.404127         1.160472
 C        -2.385640        -0.065831         1.462359
 C        -1.467307        -1.227033         1.752066
 C        -0.321375        -1.319100         0.741292
 C         0.048897         0.040178         0.173802
 O         0.295259        -0.009841        -1.046524
 C        -0.205736         1.323643         0.997875
 C        -1.669367         1.226542         1.150876
 O        -2.197664         1.035655         2.413532
 H        -4.217008        -0.760616         2.089959
 H        -4.399321         0.613061         0.885104
 H        -3.918080        -1.049879         0.309176
 H        -1.105542        -1.300020         2.762591
 H        -2.036841        -2.089124         1.692433
 H         0.632985        -1.796365         1.188027
 H        -0.542041        -1.926050        -0.174069
 H         0.214148         1.221091         2.083974
 H         0.197389         2.176916         0.361628
 H        -2.192899         1.894415         0.427922
