19
Iteration:  4208
 C        -4.017103        -0.386653         2.146093
 C        -2.446220        -0.149312         1.618075
 C        -1.777500        -1.370000         0.976775
 C        -0.295907        -1.120514         0.555418
 C         0.074111         0.214998        -0.031168
 O         1.243623         0.312277        -0.289773
 C        -0.963659         1.350927        -0.005105
 C        -2.038538         1.216537         1.141096
 O        -1.659011         0.545291         2.519713
 H        -4.371481        -1.404924         2.357171
 H        -4.113720         0.102848         3.162905
 H        -4.817791         0.063856         1.457609
 H        -1.776598        -2.216883         1.698350
 H        -2.273557        -1.765239         0.086066
 H         0.380622        -1.275053         1.431841
 H        -0.178447        -1.789633        -0.278483
 H        -0.421855         2.364998         0.049850
 H        -1.352081         1.397220        -0.988113
 H        -2.689927         2.011579         1.315534
