19
Iteration:  4578charge 0 multiplicity 1
 C        -3.903208        -0.597546         1.772259
 C        -2.480193        -0.130807         1.748748
 C        -1.389749        -1.192290         1.490537
 C        -0.582205        -1.154400         0.188883
 C         0.113279         0.145239         0.039077
 O         1.211640        -0.013678        -0.575139
 C        -0.715775         1.431938         0.335233
 C        -2.045278         1.178258         1.120624
 O        -2.063087         0.926988         2.578147
 H        -4.134240        -1.578762         1.504887
 H        -4.548380        -0.349677         2.681508
 H        -4.428778         0.176038         1.144070
 H        -0.659612        -1.026673         2.266401
 H        -1.692961        -2.287578         1.820295
 H         0.277096        -1.936554         0.227775
 H        -1.194494        -1.417628        -0.703439
 H        -0.104374         2.113500         1.067486
 H        -0.841191         1.935072        -0.564284
 H        -2.867655         1.876964         0.944771
