19
Iteration:  4766charge 0 multiplicity 1
 C        -3.838799        -0.639116         1.393982
 C        -2.363165        -0.056097         1.592925
 C        -1.248698        -1.119205         1.768360
 C        -0.548407        -1.367401         0.452347
 C         0.134039        -0.051607         0.032025
 O         0.702640         0.176801        -1.005514
 C        -0.413930         1.344898         0.811187
 C        -1.959562         1.245552         1.123210
 O        -2.246117         1.035382         2.554527
 H        -3.899784        -1.544784         0.716331
 H        -4.136923        -0.990360         2.404494
 H        -4.540428         0.163195         1.150019
 H        -0.566236        -0.862951         2.576122
 H        -1.583744        -2.141424         2.096172
 H         0.239595        -2.086351         0.688098
 H        -1.231967        -1.642261        -0.356537
 H         0.115685         1.538328         1.793431
 H        -0.083163         2.181701         0.166356
 H        -2.633892         1.998766         0.657483
