19
Iteration:  3534charge 0 multiplicity 1
 C        -3.862298        -0.417644         2.133606
 C        -2.451906        -0.225044         1.578927
 C        -1.524095        -1.437210         1.311531
 C        -0.610604        -1.188198         0.127716
 C         0.069230         0.169626         0.072277
 O         1.318518         0.333460         0.028058
 C        -0.902203         1.381988         0.004255
 C        -2.101307         1.040436         0.925570
 O        -1.800649         0.875981         2.446615
 H        -3.919252        -1.534115         2.410334
 H        -4.061280         0.364514         2.876078
 H        -4.644176        -0.350377         1.279987
 H        -0.931306        -1.704478         2.208703
 H        -2.272727        -2.182371         0.919302
 H         0.203567        -1.954510         0.143159
 H        -1.396100        -1.374051        -0.755986
 H        -0.384947         2.273320         0.305606
 H        -1.382305         1.573961        -0.989104
 H        -2.739595         1.939575         0.956786
