19
Iteration:  2249charge 0 multiplicity 1
 C        -3.970169        -0.345474         1.664228
 C        -2.475570        -0.060829         1.460369
 C        -1.749363        -1.372142         1.052928
 C        -0.270748        -1.162931         0.954047
 C         0.062205         0.044799         0.055353
 O         0.903308         0.026643        -0.829365
 C        -0.608624         1.401910         0.463616
 C        -1.892356         1.344905         1.275122
 O        -1.844874         0.719623         2.603775
 H        -4.114415        -1.222047         2.293840
 H        -4.452086         0.632965         1.960324
 H        -4.227394        -0.700733         0.668498
 H        -2.024071        -2.183889         1.814170
 H        -2.249605        -1.795376         0.123946
 H        -0.024105        -0.859432         2.021277
 H         0.308927        -2.017656         0.601341
 H         0.270056         2.059991         1.053701
 H        -0.850483         1.959179        -0.457406
 H        -2.574707         2.259380         1.194113
