19
Iteration:  2881charge 0 multiplicity 1
 C        -3.583312        -0.424824         2.383763
 C        -2.396460        -0.080208         1.511665
 C        -1.899667        -1.437810         1.045061
 C        -0.689968        -1.230892         0.132093
 C         0.014861         0.168095         0.172726
 O         1.095045         0.306960         0.638242
 C        -0.897971         1.320323        -0.254996
 C        -2.052028         1.175132         0.754293
 O        -1.529160         0.822271         2.152220
 H        -2.992775        -0.957504         3.168700
 H        -4.145290         0.524651         2.773389
 H        -4.294523        -1.130873         2.012912
 H        -1.509971        -2.151464         1.896037
 H        -2.733819        -1.998637         0.589171
 H         0.109567        -2.031028         0.336033
 H        -1.089568        -1.304339        -0.905985
 H        -0.442598         2.240454         0.013031
 H        -1.013414         1.135369        -1.462906
 H        -2.731768         2.021601         0.798832
