19
Iteration:   782charge 0 multiplicity 1
 C        -3.644714        -0.176720         2.410749
 C        -2.468294        -0.074613         1.486833
 C        -1.941085        -1.339437         0.720462
 C        -0.519727        -1.344848         0.204342
 C        -0.029839         0.068712         0.291083
 O         1.158207         0.292499         0.511099
 C        -1.069349         1.112064        -0.128745
 C        -2.067448         1.193838         0.954466
 O        -1.384577         0.839085         2.131062
 H        -3.459921        -0.802468         3.273611
 H        -3.902812         0.753397         2.889558
 H        -4.403867        -0.702970         1.845652
 H        -1.925998        -2.143667         1.494653
 H        -2.747335        -1.694619        -0.002769
 H         0.216233        -1.923696         0.746868
 H        -0.516942        -1.637723        -0.789797
 H        -0.545442         1.953870         0.013875
 H        -1.398002         0.963457        -1.136314
 H        -2.646536         2.150886         0.919238
