19
Iteration:  1034charge 0 multiplicity 1
 C        -3.789814        -0.140696         0.948543
 C        -2.358929        -0.126018         1.451460
 C        -1.437359        -1.383102         1.372283
 C         0.116022        -1.050334         1.125963
 C        -0.007584         0.071945         0.177459
 O        -0.180609        -0.012489        -1.039578
 C        -0.321344         1.400527         0.854273
 C        -1.707911         1.183491         1.277259
 O        -2.008937         0.637124         2.662976
 H        -4.452253        -1.009286         1.093580
 H        -4.274518         0.667051         1.445753
 H        -3.746479        -0.025285        -0.170621
 H        -1.620710        -1.830459         2.286626
 H        -1.759825        -2.056551         0.618513
 H         0.771486        -0.833106         1.977854
 H         0.394392        -1.951035         0.661705
 H         0.415065         1.684066         1.561738
 H        -0.187289         2.202504        -0.000022
 H        -2.323278         1.957101         0.840455
