19
Iteration:  4454charge 0 multiplicity 1
 C        -3.888826        -0.450067         2.040819
 C        -2.455320        -0.133663         1.645819
 C        -1.615055        -1.397934         1.275078
 C        -0.628537        -1.281916         0.067385
 C         0.108182         0.146758         0.114691
 O         1.297917         0.285931        -0.143565
 C        -0.886495         1.281185         0.187370
 C        -2.145449         1.165103         1.040942
 O        -1.651440         0.960447         2.443671
 H        -3.879418        -1.333517         2.821310
 H        -4.633821         0.252957         2.339064
 H        -4.330229        -1.035871         1.200337
 H        -1.107310        -1.777083         2.222180
 H        -2.319491        -2.175920         1.034233
 H         0.089555        -2.039900        -0.024888
 H        -1.286821        -1.090954        -0.786574
 H        -0.402551         2.101654         0.615430
 H        -1.193933         1.581241        -0.794647
 H        -2.976514         1.916858         0.899033
