19
Iteration:   187
 C        -3.978130        -0.182054         2.151276
 C        -2.569289        -0.015131         1.589637
 C        -1.949992        -1.263288         1.026621
 C        -0.522217        -1.261934         0.462515
 C         0.152908         0.032850         0.120028
 O         1.405178        -0.041762        -0.118021
 C        -0.751804         1.304646         0.093351
 C        -1.954463         1.224194         0.989185
 O        -1.720937         0.817286         2.342705
 H        -3.842568        -0.669968         3.230516
 H        -4.448936         0.752585         2.280923
 H        -4.690714        -0.867971         1.522440
 H        -1.977368        -2.043906         1.760318
 H        -2.623313        -1.559394         0.291109
 H         0.122872        -1.943636         1.108509
 H        -0.552282        -1.706902        -0.547379
 H        -0.141324         2.237693         0.348285
 H        -1.102442         1.553671        -0.895412
 H        -2.651217         2.046318         0.902342
