19
Iteration:   671charge 0 multiplicity 1
 C        -3.904248        -0.240055         2.135414
 C        -2.471406        -0.133188         1.681126
 C        -1.700849        -1.383368         1.253740
 C        -0.709828        -1.277118         0.039500
 C         0.096271         0.022605         0.070374
 O         1.301280         0.258627         0.217732
 C        -0.799218         1.220356        -0.015845
 C        -2.005155         1.203122         0.892150
 O        -1.661695         0.845545         2.349461
 H        -4.103359        -0.926216         2.960150
 H        -4.156302         0.785486         2.711441
 H        -4.498187        -0.446644         1.270278
 H        -1.192397        -1.852793         2.126619
 H        -2.559598        -2.133251         0.941189
 H        -0.094593        -2.099426        -0.155334
 H        -1.382855        -1.110941        -0.754083
 H        -0.211380         2.116518         0.050077
 H        -1.243219         1.184912        -1.062073
 H        -2.692636         2.151422         0.958909
