19
Iteration:  2345
 C        -3.983939        -0.367006         1.378594
 C        -2.470638        -0.017252         1.450852
 C        -1.611066        -1.372102         1.309388
 C        -0.106159        -1.132830         0.957757
 C         0.095361         0.070980         0.072730
 O         0.531307        -0.064513        -1.056055
 C        -0.421395         1.487821         0.685019
 C        -1.777238         1.331425         1.304923
 O        -2.034077         0.709116         2.619988
 H        -4.201864        -1.152817         2.121848
 H        -4.512101         0.564521         1.589919
 H        -4.245752        -0.802500         0.407938
 H        -1.604381        -1.753297         2.348355
 H        -2.127029        -2.085103         0.685557
 H         0.482723        -0.890685         1.902150
 H         0.282921        -2.007942         0.423442
 H         0.284960         1.764711         1.374019
 H        -0.424942         2.207776        -0.156511
 H        -2.466014         2.104504         1.134480
