19
Iteration:  2612
 C        -3.870482        -0.541889         1.565211
 C        -2.463817        -0.092536         1.588994
 C        -1.328466        -1.153444         1.613374
 C        -0.619605        -1.240343         0.321094
 C         0.066905         0.108676        -0.003505
 O         1.022010        -0.039912        -0.690764
 C        -0.509414         1.396991         0.661383
 C        -1.971836         1.233315         1.145476
 O        -2.178554         0.937590         2.530976
 H        -4.040457        -1.627435         1.899558
 H        -4.406192         0.166356         2.192259
 H        -4.170789        -0.444847         0.458790
 H        -0.598317        -0.965482         2.439405
 H        -1.824721        -2.199542         1.791116
 H         0.272901        -1.979781         0.246288
 H        -1.288393        -1.487719        -0.542084
 H         0.239785         1.761031         1.523590
 H        -0.494498         2.137039        -0.108379
 H        -2.692260         2.031226         0.729582
