19
Iteration:  3916charge 0 multiplicity 1
 C        -3.931431        -0.471694         1.425367
 C        -2.447923        -0.187804         1.557995
 C        -1.515436        -1.429759         1.263042
 C        -0.021613        -0.978658         0.923361
 C         0.082201         0.204898         0.008342
 O         0.441301         0.119415        -1.171545
 C        -0.413430         1.467091         0.692141
 C        -1.815123         1.187868         1.351867
 O        -2.143491         0.669333         2.715099
 H        -4.248746        -0.942041         2.339787
 H        -4.360869         0.543800         1.489569
 H        -4.303083        -0.991432         0.478190
 H        -1.466164        -2.124278         2.069973
 H        -1.974555        -2.017514         0.462159
 H         0.516830        -0.727187         1.881782
 H         0.567462        -1.700321         0.362834
 H         0.416815         1.704591         1.387649
 H        -0.535940         2.420795         0.082954
 H        -2.507751         1.986277         0.850814
