19
Iteration:  3470
 C        -3.832355        -0.555104         1.710986
 C        -2.457548        -0.128692         1.640673
 C        -1.485285        -1.358065         1.549447
 C        -0.599043        -1.249984         0.366157
 C         0.008459         0.159033        -0.017005
 O         1.146698         0.281828        -0.473248
 C        -0.745655         1.408219         0.314211
 C        -2.003478         1.176714         1.164076
 O        -1.899250         0.841261         2.511929
 H        -4.149163        -1.621560         1.930921
 H        -4.519669         0.103371         2.211689
 H        -4.149149        -0.406899         0.601716
 H        -1.014503        -1.532866         2.571122
 H        -2.096515        -2.273157         1.334087
 H         0.307702        -1.879095         0.417898
 H        -0.958963        -1.522748        -0.657871
 H        -0.186257         2.194520         0.693212
 H        -1.018825         1.746967        -0.722283
 H        -2.647149         2.086364         1.047299
