19
Iteration:  3521charge 0 multiplicity 1
 C        -3.885782        -0.379102         2.022720
 C        -2.419288        -0.198736         1.659830
 C        -1.526124        -1.407122         1.379809
 C        -0.562415        -1.191379         0.144877
 C         0.108504         0.202941        -0.033342
 O         1.303240         0.320238        -0.075023
 C        -0.879288         1.337159         0.047218
 C        -2.054372         1.115165         1.052761
 O        -1.922466         0.787449         2.455373
 H        -4.150822        -1.352554         2.473458
 H        -4.044718         0.268555         2.964391
 H        -4.609897        -0.089922         1.273133
 H        -0.989763        -1.701160         2.267945
 H        -2.093488        -2.372605         1.239067
 H         0.226929        -1.968560         0.086306
 H        -1.039031        -1.263880        -0.862121
 H        -0.361434         2.343713         0.243675
 H        -1.271158         1.395444        -0.982564
 H        -2.977803         1.560946         0.718985
