19
Iteration:   452charge 0 multiplicity 1
 C        -3.754513        -0.432312         0.927701
 C        -2.423842        -0.031722         1.580754
 C        -1.424930        -1.097390         1.808980
 C        -0.405949        -1.369079         0.685423
 C         0.070127        -0.026883         0.084886
 O         0.317871         0.088306        -1.094513
 C        -0.238975         1.154043         0.943931
 C        -1.683748         1.229406         1.229232
 O        -2.192230         1.062843         2.607593
 H        -4.103054        -1.280648         1.488056
 H        -4.497176         0.458502         1.076412
 H        -3.575861        -0.809002        -0.009056
 H        -0.861270        -0.781681         2.697491
 H        -1.903194        -2.040589         2.165010
 H         0.376904        -2.045759         1.057320
 H        -0.985067        -1.893044        -0.154195
 H         0.221718         1.141565         1.994683
 H         0.151868         2.119561         0.470374
 H        -2.382238         1.891119         0.641111
