19
Iteration:  3742
 C        -3.988270        -0.431362         2.094153
 C        -2.546103        -0.180521         1.668106
 C        -1.805024        -1.429749         1.130877
 C        -0.348716        -1.220853         0.375683
 C         0.072554         0.173679        -0.019030
 O         1.259976         0.459791        -0.154514
 C        -0.965760         1.390594         0.093077
 C        -2.062051         1.169263         1.010433
 O        -1.563525         0.643480         2.410499
 H        -4.080969        -1.490259         2.506019
 H        -4.230200         0.328239         2.841677
 H        -4.782083        -0.396874         1.222790
 H        -1.528154        -1.939599         2.071912
 H        -2.384897        -2.186147         0.388900
 H         0.399889        -1.427526         1.125598
 H        -0.228117        -1.898954        -0.416874
 H        -0.394267         2.253154         0.418195
 H        -1.344819         1.715499        -0.990138
 H        -2.688782         2.026386         1.281833
