19
Iteration:  3225charge 0 multiplicity 1
 C        -3.845961        -0.389820         1.354644
 C        -2.323892        -0.136952         1.511309
 C        -1.434377        -1.322909         1.458972
 C        -0.016208        -1.246330         0.860785
 C         0.117083         0.066650         0.107206
 O         0.355692         0.137204        -1.104208
 C        -0.375419         1.327086         0.905620
 C        -1.890801         1.194875         1.178747
 O        -2.271861         0.955784         2.508592
 H        -4.208385        -1.486086         1.463768
 H        -4.367765         0.130113         2.256954
 H        -4.258604        -0.093899         0.360191
 H        -1.352699        -1.704908         2.490179
 H        -2.071021        -2.125497         0.890251
 H         0.842403        -1.215828         1.526941
 H         0.040569        -2.123064         0.177457
 H         0.045225         1.533128         1.884397
 H        -0.203006         2.192512         0.243858
 H        -2.459728         1.783876         0.471822
