19
Iteration:  1931charge 0 multiplicity 1
 C        -3.983560        -0.214840         2.025627
 C        -2.518771        -0.081308         1.530669
 C        -1.682620        -1.363903         1.222586
 C        -0.582768        -1.362181         0.161692
 C         0.074010         0.051745         0.040194
 O         1.277752         0.225316         0.068715
 C        -0.842409         1.206220        -0.016582
 C        -1.941497         1.255316         1.131366
 O        -1.685663         0.840143         2.454782
 H        -4.027862        -0.766411         3.033647
 H        -4.373310         0.760117         2.100938
 H        -4.575193        -0.808552         1.189329
 H        -1.147895        -1.487770         2.138884
 H        -2.288688        -2.192475         0.968743
 H         0.209146        -2.074749         0.410172
 H        -0.958133        -1.560611        -0.827163
 H        -0.201579         2.180016         0.071979
 H        -1.479042         1.265311        -0.877988
 H        -2.738447         2.030934         1.066385
