19
Iteration:  4650charge 0 multiplicity 1
 C        -3.881559        -0.583418         1.697396
 C        -2.410326        -0.164828         1.651564
 C        -1.363755        -1.250197         1.654192
 C        -0.489044        -1.131917         0.351425
 C         0.160308         0.100009         0.004477
 O         1.072844         0.012027        -0.808452
 C        -0.676814         1.350490         0.624007
 C        -2.057368         1.094787         1.071879
 O        -2.146013         1.145231         2.522278
 H        -4.183421        -0.693114         0.589808
 H        -4.260913        -1.513118         2.082045
 H        -4.444268         0.262251         2.153604
 H        -0.799849        -1.427980         2.631318
 H        -1.900010        -2.156283         1.669822
 H         0.210756        -1.954059         0.224516
 H        -1.167905        -1.199167        -0.571377
 H        -0.044699         1.511580         1.456247
 H        -0.645213         2.228545        -0.155081
 H        -2.830568         1.737097         0.614099
