19
Iteration:  3003charge 0 multiplicity 1
 C        -4.038637        -0.330489         1.885368
 C        -2.517651        -0.115450         1.526229
 C        -1.737902        -1.427410         1.285048
 C        -0.443167        -1.298898         0.458078
 C         0.103217         0.186874         0.120993
 O         1.247966         0.273022        -0.287255
 C        -0.808704         1.375781         0.074134
 C        -1.950315         1.214714         1.130819
 O        -1.691465         0.724672         2.467386
 H        -4.163321        -1.398705         2.327167
 H        -4.335363         0.391973         2.597800
 H        -4.771282        -0.253878         1.068920
 H        -1.717988        -1.823152         2.362037
 H        -2.473318        -2.196211         0.900618
 H         0.423704        -1.862025         0.931741
 H        -0.622441        -1.469927        -0.594692
 H        -0.236168         2.268730         0.334256
 H        -1.398494         1.393045        -0.884585
 H        -2.727813         2.012313         1.092976
