19
Iteration:  4593charge 0 multiplicity 1
 C        -3.962152        -0.507488         1.770480
 C        -2.470670        -0.139196         1.560706
 C        -1.345959        -1.160294         1.589520
 C        -0.604787        -1.244883         0.292150
 C         0.097884         0.053805        -0.009374
 O         1.183944         0.115009        -0.598004
 C        -0.704671         1.389467         0.474773
 C        -2.093436         1.200162         1.094183
 O        -1.981435         0.864359         2.514053
 H        -3.995269        -1.552363         1.343446
 H        -4.105390        -0.556961         2.835901
 H        -4.766187         0.016622         1.246978
 H        -0.602014        -0.757963         2.314323
 H        -1.778904        -2.119790         1.845901
 H         0.116983        -2.021414         0.406278
 H        -1.274091        -1.352871        -0.624599
 H        -0.024412         1.889430         1.147987
 H        -0.779819         2.062518        -0.466362
 H        -2.880760         1.907307         0.801505
