19
Iteration:   546charge 0 multiplicity 1
 C        -3.875719        -0.436709         1.453882
 C        -2.465671        -0.051289         1.569814
 C        -1.446877        -1.206119         1.673171
 C        -0.654710        -1.259188         0.408117
 C         0.047202         0.047700        -0.069231
 O         1.001477        -0.007966        -0.808187
 C        -0.442290         1.293966         0.707269
 C        -1.807538         1.260118         1.208911
 O        -2.202892         0.994435         2.548862
 H        -4.259962        -0.715390         2.522863
 H        -4.438081         0.359864         1.130798
 H        -4.010215        -1.535812         0.956853
 H        -0.831299        -1.115353         2.584133
 H        -1.902562        -2.180030         1.784638
 H         0.206835        -1.993727         0.500499
 H        -1.270070        -1.644568        -0.395097
 H         0.276119         1.369847         1.486544
 H        -0.281526         2.130802         0.106496
 H        -2.388966         2.048087         0.818536
