19
Iteration:  2333charge 0 multiplicity 1
 C        -3.804078        -0.291063         1.428421
 C        -2.350194        -0.062285         1.412029
 C        -1.636198        -1.326356         1.225137
 C        -0.144487        -1.121945         1.007178
 C         0.020919         0.127665         0.153334
 O         0.489305        -0.088667        -0.974500
 C        -0.451226         1.444845         0.625013
 C        -1.889249         1.331470         1.256636
 O        -2.000983         0.636522         2.587629
 H        -4.031848        -0.816798         2.373503
 H        -4.458116         0.535676         1.454080
 H        -4.161207        -0.883765         0.554055
 H        -1.865947        -1.965782         2.064071
 H        -2.079839        -1.803214         0.367652
 H         0.275358        -1.042450         2.038401
 H         0.444825        -1.907061         0.518081
 H         0.219957         1.786992         1.344815
 H        -0.477454         2.226352        -0.189437
 H        -2.500805         2.147907         1.138903
