19
Iteration:   704
 C        -3.707525        -0.131052         2.220385
 C        -2.401188        -0.132199         1.477579
 C        -1.780635        -1.465805         1.129817
 C        -0.662370        -1.271494         0.058584
 C        -0.000059         0.098270         0.139865
 O         1.151230         0.164380         0.533525
 C        -1.006315         1.359341        -0.088397
 C        -2.128314         1.174668         0.929237
 O        -1.414837         0.755398         2.183312
 H        -3.532777        -0.552473         3.210108
 H        -4.068883         0.957075         2.070132
 H        -4.506644        -0.647347         1.732606
 H        -1.179423        -1.701482         2.032563
 H        -2.501029        -2.362776         0.939068
 H         0.123664        -1.960667         0.136459
 H        -1.062583        -1.372963        -0.915279
 H        -0.520810         2.279030        -0.133921
 H        -1.373342         1.225657        -1.137997
 H        -2.761768         2.117833         0.994839
