19
Iteration:  3294charge 0 multiplicity 1
 C        -3.804376        -0.512078         1.179689
 C        -2.384969        -0.101213         1.682275
 C        -1.316557        -1.233553         1.753630
 C        -0.298574        -1.295378         0.570950
 C        -0.006073         0.077355        -0.040176
 O         0.639909         0.143025        -1.088433
 C        -0.428901         1.363469         0.874091
 C        -1.869803         1.195468         1.244497
 O        -2.295065         0.987956         2.633066
 H        -4.115484        -1.514033         1.430512
 H        -4.696012         0.124759         1.566997
 H        -3.830673        -0.491355         0.085089
 H        -0.717781        -1.158287         2.715226
 H        -1.831561        -2.260988         1.719447
 H         0.503041        -1.968487         0.910197
 H        -0.784708        -1.728390        -0.264722
 H         0.309097         1.317316         1.771274
 H        -0.195603         2.236195         0.251320
 H        -2.728844         1.713029         0.692754
