19
Iteration:  3527
 C        -3.883259        -0.382651         2.081147
 C        -2.459651        -0.219355         1.617241
 C        -1.500729        -1.422353         1.353422
 C        -0.606450        -1.205350         0.152569
 C         0.106015         0.196692        -0.012094
 O         1.304173         0.324987        -0.025679
 C        -0.875542         1.368575         0.015407
 C        -2.058723         1.079493         0.980374
 O        -1.885206         0.819388         2.472822
 H        -3.916261        -1.415753         2.454848
 H        -3.987132         0.288265         2.893935
 H        -4.553219        -0.127674         1.239405
 H        -0.956488        -1.802732         2.264597
 H        -2.180198        -2.227945         1.107665
 H         0.197782        -1.926931         0.107807
 H        -1.082381        -1.233165        -0.859095
 H        -0.398675         2.306035         0.285392
 H        -1.327024         1.455446        -0.986794
 H        -3.003953         1.683218         0.876783
