19
Iteration:   190charge 0 multiplicity 1
 C        -3.961792        -0.183851         2.122090
 C        -2.568034        -0.013713         1.617555
 C        -1.943690        -1.242857         1.003241
 C        -0.511737        -1.274551         0.485733
 C         0.160649         0.010837         0.133679
 O         1.399020        -0.043666        -0.155339
 C        -0.756003         1.304631         0.098638
 C        -1.942474         1.217592         0.981699
 O        -1.748346         0.830734         2.359188
 H        -3.885001        -0.688219         3.129982
 H        -4.451373         0.790271         2.328864
 H        -4.622781        -0.840819         1.603725
 H        -2.012326        -2.030643         1.743466
 H        -2.651204        -1.579755         0.239383
 H         0.106269        -1.954748         1.161356
 H        -0.425983        -1.654345        -0.498428
 H        -0.182098         2.205720         0.410758
 H        -1.192752         1.598115        -0.836792
 H        -2.651902         2.022217         0.930645
