19
Iteration:  2667charge 0 multiplicity 1
 C        -3.968561        -0.317109         1.532132
 C        -2.485092        -0.170036         1.640979
 C        -1.545479        -1.371182         1.573813
 C        -0.481435        -1.235681         0.463132
 C         0.123898         0.105281         0.110792
 O         1.052771         0.188986        -0.668927
 C        -0.679738         1.349993         0.419303
 C        -2.010793         1.119771         1.145631
 O        -1.893730         0.886380         2.559671
 H        -4.278470        -0.812798         2.473473
 H        -4.286165         0.659479         1.566706
 H        -4.162265        -0.828201         0.559580
 H        -0.941411        -1.484469         2.493776
 H        -2.111425        -2.366004         1.454320
 H         0.353873        -2.002524         0.580424
 H        -0.819000        -1.536913        -0.530528
 H         0.047322         2.041380         1.087777
 H        -0.773784         1.897202        -0.508488
 H        -2.864592         1.740716         0.725368
