19
Iteration:   921charge 0 multiplicity 1
 C        -4.023488        -0.302536         1.776242
 C        -2.549179        -0.102876         1.479899
 C        -1.808615        -1.302965         1.089839
 C        -0.280492        -0.992788         0.882577
 C         0.086181         0.168025         0.028268
 O         0.922413         0.039287        -0.840737
 C        -0.523063         1.437911         0.508155
 C        -1.837103         1.133993         1.193362
 O        -1.868926         0.550375         2.508758
 H        -4.108451        -1.031053         2.614180
 H        -4.397805         0.631916         2.316791
 H        -4.538007        -0.671597         0.900481
 H        -1.820580        -2.028647         1.880280
 H        -2.068410        -1.828413         0.183169
 H         0.242190        -0.762427         1.814981
 H         0.147330        -2.037892         0.583922
 H         0.148617         1.859491         1.378967
 H        -0.562965         2.250275        -0.298186
 H        -2.530297         1.990049         1.198566
