19
Iteration:  4834charge 0 multiplicity 1
 C        -3.876611        -0.497382         1.348893
 C        -2.394778        -0.119779         1.608691
 C        -1.320281        -1.231799         1.755907
 C        -0.363157        -1.315645         0.622048
 C         0.134937         0.090250         0.084850
 O         0.518229         0.221419        -1.080068
 C        -0.403613         1.306566         0.783465
 C        -1.867629         1.076038         1.110395
 O        -2.186236         1.003488         2.551783
 H        -4.006989        -1.605430         1.560441
 H        -4.386007         0.185056         1.942040
 H        -4.162797        -0.220071         0.311227
 H        -0.669782        -0.984329         2.706294
 H        -1.721958        -2.225228         1.939866
 H         0.367074        -2.087506         0.724533
 H        -0.947282        -1.644357        -0.272312
 H        -0.019408         1.522784         1.756893
 H         0.019589         2.276090         0.177473
 H        -2.572920         1.776063         0.601706
