19
Iteration:   517charge 0 multiplicity 1
 C        -3.817686        -0.578861         1.273795
 C        -2.456890         0.015926         1.657179
 C        -1.399240        -1.131617         1.744736
 C        -0.715499        -1.333147         0.426783
 C         0.140642        -0.033493         0.085862
 O         0.767286         0.059844        -0.983464
 C        -0.326080         1.254385         0.916712
 C        -1.842059         1.219138         1.157946
 O        -2.148552         1.126808         2.524038
 H        -4.150059        -1.225276         2.064603
 H        -4.607287         0.207610         0.994155
 H        -3.835615        -1.228549         0.427782
 H        -0.614317        -0.885924         2.511530
 H        -1.827423        -2.160565         2.098060
 H        -0.118450        -2.236644         0.481512
 H        -1.415102        -1.538376        -0.415191
 H         0.072118         1.284056         1.971124
 H         0.124841         2.118068         0.298344
 H        -2.399879         2.025694         0.533741
