19
Iteration:  4990charge 0 multiplicity 1
 C        -3.834001        -0.652967         1.524231
 C        -2.393186        -0.106827         1.724094
 C        -1.320676        -1.224986         1.768170
 C        -0.603418        -1.215067         0.405244
 C         0.050849         0.119637        -0.078237
 O         0.884943         0.143012        -0.975730
 C        -0.343523         1.330586         0.728154
 C        -1.924996         1.214634         1.077622
 O        -2.291195         0.989416         2.570766
 H        -4.153952        -1.006036         2.470467
 H        -4.617643         0.144867         1.248452
 H        -3.824085        -1.416105         0.754715
 H        -0.535635        -0.988675         2.554313
 H        -1.837571        -2.178724         1.876627
 H         0.143485        -1.974471         0.260887
 H        -1.416976        -1.343897        -0.335634
 H         0.096186         1.127319         1.671989
 H        -0.169212         2.297762         0.229976
 H        -2.629487         1.931043         0.724685
