19
Iteration:  2958
 C        -3.891054        -0.256901         2.020522
 C        -2.412228        -0.140134         1.611768
 C        -1.779277        -1.467204         1.146321
 C        -0.522556        -1.304735         0.178833
 C         0.045573         0.115144         0.101589
 O         1.221605         0.379108         0.169075
 C        -1.002366         1.253385        -0.132602
 C        -1.949018         1.193641         1.074555
 O        -1.583749         0.807808         2.476795
 H        -3.993745        -1.003803         2.852359
 H        -4.239596         0.760014         2.259355
 H        -4.286349        -0.650364         1.096235
 H        -1.607943        -2.321933         1.933562
 H        -2.547208        -1.995731         0.540928
 H         0.383943        -1.875190         0.589533
 H        -0.929394        -1.619196        -0.775256
 H        -0.434991         2.159435        -0.100345
 H        -1.605135         1.104841        -1.122428
 H        -2.650103         2.025843         1.185377
