19
Iteration:  4370
 C        -3.830133        -0.397187         2.228063
 C        -2.424259        -0.143895         1.678758
 C        -1.857669        -1.406911         1.018104
 C        -0.542154        -1.233265         0.187869
 C         0.033555         0.181765         0.145850
 O         1.242284         0.430183         0.152691
 C        -0.989979         1.237147        -0.164016
 C        -1.956762         1.077900         1.065243
 O        -1.521334         0.793783         2.390320
 H        -3.833210        -0.147435         3.263090
 H        -4.459883         0.322487         1.753784
 H        -4.261843        -1.366019         1.994417
 H        -1.836240        -2.242893         1.674728
 H        -2.768227        -1.596706         0.339641
 H         0.194658        -2.062059         0.287662
 H        -0.807706        -1.395933        -0.871742
 H        -0.488978         2.297098        -0.171403
 H        -1.671312         1.207758        -1.037121
 H        -2.623817         1.904692         0.965704
