19
Iteration:  3846charge 0 multiplicity 1
 C        -3.947999        -0.547758         1.802701
 C        -2.445022        -0.193189         1.440974
 C        -1.703620        -1.354924         0.937852
 C        -0.225553        -0.957370         1.031162
 C         0.116411         0.317275         0.096198
 O         0.805012         0.095899        -0.917825
 C        -0.618282         1.546775         0.497835
 C        -1.923655         1.224768         1.286526
 O        -1.860658         0.521160         2.519185
 H        -3.827321        -0.999561         2.812435
 H        -4.459026         0.381735         1.981625
 H        -4.463311        -1.208737         1.171317
 H        -2.056363        -2.255378         1.518497
 H        -2.031147        -1.649078        -0.020878
 H        -0.068250        -0.856715         2.119347
 H         0.450649        -1.786798         0.634867
 H         0.059576         2.394070         0.848069
 H        -0.974173         1.911860        -0.453765
 H        -2.627386         2.043402         1.412192
