19
Iteration:   986
 C        -3.823504        -0.338825         1.162421
 C        -2.380011        -0.082906         1.534660
 C        -1.530717        -1.321225         1.258149
 C        -0.088761        -1.126600         0.989048
 C         0.021793         0.109365         0.112941
 O         0.141468        -0.030938        -1.088716
 C        -0.259197         1.433725         0.815600
 C        -1.749945         1.211984         1.356922
 O        -2.052750         0.762396         2.654321
 H        -4.319194        -0.990307         1.897463
 H        -4.448692         0.579815         1.169710
 H        -3.882852        -0.935129         0.273888
 H        -1.836752        -2.059392         2.053408
 H        -2.060038        -1.735595         0.383162
 H         0.500975        -0.972657         1.905812
 H         0.455099        -1.950500         0.418141
 H         0.439313         1.644727         1.716377
 H        -0.074551         2.314118         0.151112
 H        -2.358106         2.051924         0.995736
