19
Iteration:  3039
 C        -4.021772        -0.280022         1.893039
 C        -2.481637        -0.185973         1.589671
 C        -1.749457        -1.427821         1.175566
 C        -0.296304        -1.277046         0.515373
 C         0.174757         0.143395         0.035258
 O         1.231482         0.225404        -0.542275
 C        -0.794945         1.297001         0.429888
 C        -2.108353         1.085463         1.082087
 O        -1.860807         0.936883         2.485732
 H        -4.191798        -1.159776         2.487653
 H        -4.163402         0.622648         2.541332
 H        -4.684752        -0.253019         0.973650
 H        -1.545576        -1.979507         2.056949
 H        -2.428091        -1.995878         0.462573
 H         0.492887        -1.563123         1.177854
 H        -0.140856        -2.103890        -0.243209
 H        -0.084998         1.910178         1.157746
 H        -0.811459         2.147815        -0.357492
 H        -2.890425         1.804590         0.773582
