19
Iteration:   593
 C        -4.030104        -0.267224         1.689420
 C        -2.486373        -0.130126         1.615286
 C        -1.536225        -1.294913         1.565607
 C        -0.623796        -1.256327         0.330667
 C         0.132210         0.010431         0.066094
 O         1.201210         0.149158        -0.560640
 C        -0.623778         1.232435         0.472003
 C        -1.982757         1.147986         1.094569
 O        -1.881489         0.965784         2.475666
 H        -4.373190        -0.851806         2.565834
 H        -4.570179         0.777417         1.688681
 H        -4.395293        -1.001876         0.915452
 H        -0.913510        -1.414086         2.486018
 H        -2.224995        -2.253683         1.601680
 H         0.060755        -2.084691         0.299158
 H        -1.222895        -1.360538        -0.544672
 H         0.000928         1.840733         1.082218
 H        -0.642218         1.707084        -0.571514
 H        -2.871074         1.783162         0.615373
