19
Iteration:  2227charge 0 multiplicity 1
 C        -4.074238        -0.269273         1.630812
 C        -2.519637        -0.114499         1.695557
 C        -1.796066        -1.276749         1.217039
 C        -0.272459        -1.185307         0.820935
 C         0.167127         0.067669         0.140438
 O         0.962325         0.159081        -0.758906
 C        -0.647505         1.291194         0.376798
 C        -1.917034         1.109552         1.116091
 O        -1.739680         0.782006         2.555851
 H        -4.299380        -1.300855         1.886226
 H        -4.571766         0.522160         2.243453
 H        -4.317188        -0.289508         0.561758
 H        -1.942964        -2.241786         1.811071
 H        -2.297962        -1.551756         0.233342
 H         0.426401        -1.374772         1.687320
 H        -0.141272        -1.955279         0.051598
 H        -0.097345         2.100780         1.150242
 H        -0.805239         1.869470        -0.545882
 H        -2.648527         1.974144         0.978919
