19
Iteration:  1876charge 0 multiplicity 1
 C        -3.953479        -0.345949         1.856683
 C        -2.432483        -0.085272         1.608169
 C        -1.508930        -1.374789         1.565839
 C        -0.799614        -1.243549         0.107791
 C         0.078048         0.096215         0.033673
 O         1.253148         0.018635        -0.200053
 C        -0.619068         1.395626         0.306136
 C        -1.939506         1.190930         1.004465
 O        -1.943602         0.945159         2.395293
 H        -4.002147        -0.887793         2.856567
 H        -4.537816         0.553901         1.945180
 H        -4.379395        -1.026767         1.009537
 H        -0.805740        -1.525203         2.338526
 H        -2.030894        -2.293685         1.607206
 H        -0.012255        -1.958240        -0.086745
 H        -1.490738        -1.406408        -0.710803
 H         0.108991         2.086061         0.927536
 H        -0.855957         1.872577        -0.640464
 H        -2.695752         1.851099         0.624994
