19
Iteration:  4216charge 0 multiplicity 1
 C        -4.058321        -0.381750         2.143959
 C        -2.460279        -0.184531         1.668971
 C        -1.743031        -1.360529         0.952743
 C        -0.365660        -1.136024         0.531623
 C         0.050539         0.217768         0.027094
 O         1.264528         0.313598        -0.238992
 C        -0.992711         1.368922        -0.020404
 C        -2.023508         1.160285         1.150572
 O        -1.537295         0.601963         2.464369
 H        -4.278840        -1.525119         2.215179
 H        -4.227953         0.095603         3.060422
 H        -4.726058        -0.003851         1.365413
 H        -1.920197        -2.167130         1.555932
 H        -2.483889        -1.445665         0.075260
 H         0.359616        -1.215420         1.339156
 H        -0.102162        -1.922483        -0.213631
 H        -0.648804         2.464037        -0.003152
 H        -1.562937         1.224641        -0.995730
 H        -2.760356         1.919690         1.330305
