19
Iteration:  3865
 C        -3.881483        -0.478207         1.741999
 C        -2.462971        -0.202093         1.398547
 C        -1.578364        -1.366284         0.956390
 C        -0.101747        -1.032761         0.963639
 C         0.036216         0.218975         0.196647
 O         0.592447         0.080304        -0.878877
 C        -0.613967         1.590368         0.580609
 C        -1.948996         1.253351         1.229102
 O        -1.845711         0.590452         2.530005
 H        -3.952382        -0.917794         2.754140
 H        -4.668129         0.386802         1.618426
 H        -4.145200        -1.362736         1.145630
 H        -1.753033        -2.288784         1.571608
 H        -1.997866        -1.840683        -0.044720
 H         0.271014        -0.891372         1.956142
 H         0.414116        -1.840461         0.439537
 H        -0.082346         2.113641         1.350072
 H        -0.675853         2.310625        -0.323466
 H        -2.610611         2.075559         1.079937
