19
Iteration:  3697
 C        -3.745690        -0.368530         2.309211
 C        -2.460871        -0.162017         1.558961
 C        -1.729254        -1.463076         0.900449
 C        -0.464000        -1.270484         0.122884
 C         0.088150         0.205205         0.254067
 O         1.265123         0.439857         0.131768
 C        -1.030230         1.195022         0.009582
 C        -2.177913         1.213515         1.044667
 O        -1.636374         0.794907         2.337499
 H        -3.572632        -0.932777         3.283559
 H        -4.311807         0.525598         2.373204
 H        -4.305565        -1.147082         1.656637
 H        -1.470650        -2.170602         1.693369
 H        -2.684627        -1.855656         0.352384
 H         0.345989        -1.957154         0.377181
 H        -0.663375        -1.329809        -0.915450
 H        -0.611271         2.233047         0.000889
 H        -1.390397         1.017396        -1.081850
 H        -2.995799         1.960534         1.153352
