19
Iteration:  4602
 C        -3.917860        -0.537046         1.722682
 C        -2.502030        -0.111060         1.535977
 C        -1.370736        -1.193763         1.634997
 C        -0.583694        -1.289694         0.305111
 C         0.056890         0.061134        -0.051450
 O         1.144591         0.205349        -0.586449
 C        -0.666741         1.336379         0.503425
 C        -2.024705         1.189059         1.084112
 O        -1.997594         0.917969         2.474782
 H        -4.180326        -1.529629         1.425516
 H        -4.017048        -0.576467         2.838375
 H        -4.707271         0.174969         1.542953
 H        -0.739412        -0.973536         2.501996
 H        -1.777402        -2.226016         1.971063
 H         0.172751        -2.112331         0.160149
 H        -1.431901        -1.531024        -0.401993
 H         0.086773         1.785648         1.208215
 H        -0.692852         1.938749        -0.394677
 H        -2.814698         1.906496         0.887561
