19
Iteration:   445
 C        -3.782803        -0.470108         0.950648
 C        -2.378336         0.051748         1.552800
 C        -1.416420        -1.148372         1.795749
 C        -0.429644        -1.357632         0.754742
 C         0.035326        -0.050200         0.106730
 O         0.284658         0.105660        -1.073013
 C        -0.197668         1.188046         0.910758
 C        -1.701746         1.246865         1.227075
 O        -2.166886         1.022051         2.603156
 H        -4.268915        -1.332168         1.432401
 H        -4.530760         0.431464         0.789375
 H        -3.621854        -0.823360        -0.140895
 H        -0.874678        -0.892143         2.681964
 H        -1.907754        -2.064141         1.987739
 H         0.394855        -1.937973         1.158010
 H        -0.723408        -1.963212        -0.169343
 H         0.275083         1.093290         1.888129
 H         0.111857         2.097629         0.361608
 H        -2.174149         2.114122         0.719370
