19
Iteration:   919charge 0 multiplicity 1
 C        -4.028887        -0.309112         1.786953
 C        -2.554811        -0.092163         1.483449
 C        -1.810558        -1.303829         1.075258
 C        -0.289191        -0.997478         0.876643
 C         0.092961         0.151677         0.027741
 O         0.943196         0.039969        -0.829502
 C        -0.539020         1.456705         0.481532
 C        -1.852530         1.142008         1.191412
 O        -1.849609         0.543887         2.519875
 H        -4.155109        -1.036334         2.580804
 H        -4.413684         0.631147         2.313623
 H        -4.526452        -0.664063         0.916931
 H        -1.788021        -2.070666         1.897544
 H        -2.113760        -1.855483         0.162373
 H         0.238207        -0.753425         1.810314
 H         0.121199        -2.045796         0.613334
 H         0.146203         1.913556         1.372682
 H        -0.562232         2.218092        -0.260427
 H        -2.519795         2.019067         1.232468
