19
Iteration:  1638
 C        -3.686522        -0.195761         0.870895
 C        -2.311436        -0.023332         1.496230
 C        -1.330129        -1.204071         1.825388
 C        -0.154416        -1.322963         0.827490
 C        -0.058084        -0.057173         0.054128
 O         0.040143        -0.091665        -1.161400
 C        -0.155075         1.251972         1.028130
 C        -1.679009         1.298188         1.296037
 O        -2.375155         0.958560         2.543395
 H        -4.258803        -0.965231         1.521662
 H        -4.231632         0.682776         0.813698
 H        -3.522507        -0.506423        -0.229769
 H        -1.033282        -1.020990         2.892454
 H        -1.985041        -2.207453         1.925946
 H         0.771000        -1.326340         1.384115
 H        -0.178929        -2.294195         0.286056
 H         0.378752         0.917608         1.875139
 H         0.216611         2.163824         0.712277
 H        -2.206449         2.005868         0.689218
