19
Iteration:  1801
 C        -3.846879        -0.498092         1.484901
 C        -2.372044        -0.061176         1.598564
 C        -1.449349        -1.239507         1.725946
 C        -0.750363        -1.148485         0.399818
 C         0.111070         0.050936         0.076759
 O         0.981173        -0.113280        -0.726144
 C        -0.380525         1.319913         0.647309
 C        -1.874345         1.205335         1.078149
 O        -2.181179         1.089257         2.486976
 H        -3.987345        -1.266617         2.283536
 H        -4.614730         0.135503         1.453913
 H        -3.904054        -1.086655         0.500189
 H        -0.873578        -1.217687         2.636774
 H        -1.982556        -2.185785         1.862362
 H        -0.139249        -1.966669         0.090668
 H        -1.653302        -0.994386        -0.317448
 H         0.152056         1.835401         1.514012
 H        -0.274842         2.044252        -0.157651
 H        -2.635531         1.825910         0.600772
