19
Iteration:  2016
 C        -3.661121        -0.231357         2.362858
 C        -2.475664        -0.013097         1.532574
 C        -1.976964        -1.346928         0.846062
 C        -0.525898        -1.387993         0.282733
 C         0.048647         0.020842         0.131994
 O         1.163791         0.375873         0.488774
 C        -0.957172         1.128956        -0.307072
 C        -1.957422         1.237773         0.929408
 O        -1.550114         0.797077         2.258716
 H        -3.460649        -1.139358         2.900069
 H        -3.687118         0.456513         3.099901
 H        -4.658696        -0.364410         1.967455
 H        -2.158872        -2.122173         1.622328
 H        -2.852543        -1.600387         0.209059
 H         0.127268        -1.882427         0.993117
 H        -0.402615        -1.982373        -0.621445
 H        -0.497569         2.111201        -0.465082
 H        -1.602128         0.985381        -1.124457
 H        -2.397352         2.164889         0.915781
