19
Iteration:  4147
 C        -3.925488        -0.419828         1.849951
 C        -2.446276        -0.196920         1.597054
 C        -1.690981        -1.310237         1.014138
 C        -0.265824        -1.100149         0.769815
 C         0.027001         0.223751         0.005037
 O         0.987518         0.165265        -0.711429
 C        -0.829914         1.428711         0.410940
 C        -2.022512         1.154024         1.218181
 O        -1.720156         0.655277         2.573415
 H        -4.062216        -1.326396         2.424667
 H        -4.336774         0.494479         2.372778
 H        -4.389618        -0.564657         0.891170
 H        -1.870459        -2.305041         1.537419
 H        -2.185268        -1.401774         0.016253
 H         0.390044        -1.132293         1.655717
 H         0.129785        -1.958595         0.153316
 H        -0.053889         1.925951         1.018526
 H        -1.031237         2.112814        -0.521885
 H        -2.873147         1.953545         1.057210
