19
Iteration:  2777charge 0 multiplicity 1
 C        -3.864666        -0.352691         2.049399
 C        -2.484826        -0.107405         1.546820
 C        -1.671940        -1.430716         1.295946
 C        -0.577576        -1.208890         0.253834
 C         0.004993         0.136555         0.153523
 O         1.268206         0.226522         0.024532
 C        -0.886089         1.308034         0.100483
 C        -2.115068         1.219016         0.930571
 O        -1.601113         0.784108         2.302518
 H        -4.083689        -1.173886         2.777136
 H        -4.213089         0.516765         2.518302
 H        -4.613483        -0.506782         1.203857
 H        -1.161906        -1.732396         2.220707
 H        -2.399208        -2.214183         0.942596
 H         0.320021        -1.843985         0.465299
 H        -0.900087        -1.491865        -0.755881
 H        -0.287496         2.312866         0.342003
 H        -1.191346         1.398229        -0.936918
 H        -2.840441         2.083240         0.815548
