19
Iteration:  3396
 C        -3.902803        -0.594478         1.613384
 C        -2.397574        -0.128099         1.635419
 C        -1.311429        -1.286355         1.619838
 C        -0.615058        -1.276189         0.294367
 C         0.032990         0.133716        -0.049850
 O         1.006055         0.283825        -0.820211
 C        -0.481479         1.301505         0.791674
 C        -1.932290         1.181698         1.141480
 O        -2.239965         0.965082         2.472358
 H        -4.205312        -0.368296         2.665529
 H        -4.545769        -0.113719         0.956815
 H        -4.099304        -1.673620         1.469197
 H        -0.698875        -0.854499         2.431962
 H        -1.675672        -2.275848         1.886568
 H         0.284108        -1.900986         0.212666
 H        -1.270041        -1.620418        -0.496065
 H         0.237442         1.092163         1.691265
 H        -0.137474         2.311737         0.413489
 H        -2.725376         1.735025         0.545435
