19
Iteration:  1342charge 0 multiplicity 1
 C        -3.660873        -0.150673         2.312225
 C        -2.413660        -0.127108         1.535809
 C        -1.862670        -1.418234         1.009041
 C        -0.645167        -1.235341         0.005711
 C         0.056954         0.167723         0.117216
 O         1.182584         0.173599         0.615911
 C        -0.983521         1.259540        -0.137632
 C        -2.052265         1.144940         0.885932
 O        -1.515111         0.754181         2.223864
 H        -3.396391        -0.414003         3.298625
 H        -4.084287         0.912021         2.464258
 H        -4.194853        -0.929350         1.820209
 H        -1.549448        -1.991511         1.900542
 H        -2.771511        -1.867115         0.490649
 H         0.043712        -2.019313         0.203022
 H        -1.062286        -1.458408        -1.057775
 H        -0.507124         2.328969        -0.098989
 H        -1.484093         1.188514        -1.154710
 H        -2.775268         1.996437         0.764887
