19
Iteration:  3838
 C        -3.944591        -0.494004         1.831322
 C        -2.528067        -0.193827         1.482449
 C        -1.701308        -1.302909         0.900878
 C        -0.213101        -0.962153         1.042077
 C         0.131759         0.231501         0.072884
 O         0.877949         0.160873        -0.912875
 C        -0.681774         1.484892         0.418344
 C        -1.942123         1.212882         1.271274
 O        -1.825835         0.488699         2.576105
 H        -3.916192        -1.196158         2.684944
 H        -4.540117         0.319809         2.067444
 H        -4.447353        -1.168547         1.088542
 H        -1.902823        -2.199971         1.500063
 H        -2.109721        -1.566493        -0.054053
 H        -0.032202        -0.622249         2.107966
 H         0.369681        -1.865582         0.809445
 H        -0.074391         2.304665         0.925329
 H        -1.004363         1.933901        -0.485646
 H        -2.482971         2.224700         1.279644
