19
Iteration:  3186charge 0 multiplicity 1
 C        -3.919029        -0.486686         1.290242
 C        -2.467165        -0.121087         1.486398
 C        -1.558557        -1.314513         1.366201
 C        -0.108398        -1.023223         1.045984
 C         0.092703         0.098281         0.078721
 O         0.350907         0.027932        -1.129636
 C        -0.388386         1.430440         0.790802
 C        -1.830365         1.197790         1.212668
 O        -1.960468         0.788808         2.598163
 H        -4.074748        -1.521740         1.635143
 H        -4.550969         0.346008         1.586468
 H        -3.973498        -0.423790         0.203548
 H        -1.568128        -1.943999         2.289033
 H        -1.897051        -1.916348         0.572688
 H         0.274344        -0.733134         2.062288
 H         0.431334        -1.919792         0.835784
 H         0.277882         1.654745         1.704299
 H        -0.319721         2.339064         0.206027
 H        -2.578271         1.957734         0.918642
