19
Iteration:  2936
 C        -3.796382        -0.166965         2.259669
 C        -2.421822        -0.194227         1.539277
 C        -1.815660        -1.437185         1.042124
 C        -0.518469        -1.309431         0.081389
 C         0.067162         0.104940         0.075816
 O         1.202619         0.427161         0.372595
 C        -0.975743         1.229173        -0.035091
 C        -2.004208         1.122160         0.959953
 O        -1.625913         0.780540         2.305625
 H        -3.694093        -0.607831         3.288369
 H        -3.984258         0.928538         2.358878
 H        -4.486094        -0.665894         1.614311
 H        -1.357202        -2.151659         1.835595
 H        -2.586514        -2.080069         0.578779
 H         0.271463        -2.052159         0.465911
 H        -0.838335        -1.587050        -0.929099
 H        -0.503960         2.194499        -0.076101
 H        -1.425433         1.038067        -1.106154
 H        -2.881246         1.770574         0.842985
