19
Iteration:  4774charge 0 multiplicity 1
 C        -3.760850        -0.597237         1.425165
 C        -2.431189        -0.085613         1.595498
 C        -1.272455        -1.096787         1.740738
 C        -0.474701        -1.374882         0.417222
 C         0.079738        -0.040314         0.018863
 O         0.699218         0.152167        -1.017059
 C        -0.422917         1.313301         0.866690
 C        -1.952574         1.290335         1.146000
 O        -2.242348         1.048336         2.535061
 H        -3.846772        -1.552746         0.932985
 H        -4.179783        -0.900160         2.491306
 H        -4.405798         0.071107         0.834641
 H        -0.586054        -0.787772         2.496145
 H        -1.715974        -2.020325         2.217647
 H         0.348982        -2.178467         0.588155
 H        -0.953848        -1.768330        -0.485818
 H        -0.131647         1.319377         1.959791
 H        -0.214483         2.160498         0.350467
 H        -2.683592         1.839068         0.568261
