19
Iteration:  2618
 C        -3.900584        -0.538081         1.559623
 C        -2.448857        -0.096220         1.563256
 C        -1.404419        -1.191088         1.571348
 C        -0.575613        -1.260658         0.322015
 C         0.061272         0.083290        -0.009836
 O         1.068684        -0.012361        -0.709581
 C        -0.528385         1.389747         0.611085
 C        -1.933507         1.228531         1.196797
 O        -2.212896         0.965692         2.593761
 H        -3.867845        -1.521838         1.942434
 H        -4.446894         0.170787         2.277029
 H        -4.145823        -0.468693         0.545439
 H        -0.676117        -0.900123         2.325543
 H        -1.863329        -2.049604         1.962128
 H         0.270895        -1.902971         0.329421
 H        -1.134363        -1.688932        -0.516732
 H         0.178136         1.775176         1.324347
 H        -0.576279         2.218629        -0.160119
 H        -2.539337         2.010028         0.829058
