19
Iteration:  1120
 C        -3.965039        -0.249712         1.414765
 C        -2.477660        -0.109706         1.417155
 C        -1.626862        -1.383991         1.228519
 C        -0.107503        -1.044363         0.997504
 C         0.069888         0.168409         0.117946
 O         0.420619         0.010335        -1.030695
 C        -0.343484         1.415869         0.765767
 C        -1.782512         1.187227         1.257676
 O        -1.987394         0.638952         2.563869
 H        -4.119729        -0.853046         2.329168
 H        -4.389859         0.697995         1.455478
 H        -4.373142        -0.866057         0.587185
 H        -1.745076        -2.164569         2.002684
 H        -1.844993        -1.903207         0.299033
 H         0.389022        -0.802286         1.958479
 H         0.409589        -1.877159         0.620789
 H         0.382006         1.518284         1.551739
 H        -0.236780         2.333419         0.003122
 H        -2.485844         1.997621         1.034281
