19
Iteration:  1324charge 0 multiplicity 1
 C        -3.701233        -0.168093         2.273431
 C        -2.345558        -0.129526         1.569017
 C        -1.912726        -1.445167         0.893414
 C        -0.661492        -1.347460         0.026109
 C        -0.055452         0.035376         0.305008
 O         1.082845         0.371697         0.583066
 C        -0.949119         1.169735        -0.178072
 C        -2.032228         1.210085         0.968020
 O        -1.338150         0.811218         2.182617
 H        -3.672490        -0.477446         3.403709
 H        -4.041800         0.790786         2.275809
 H        -4.521567        -0.839920         1.822068
 H        -1.730000        -2.219325         1.601653
 H        -2.640147        -1.783638         0.208171
 H         0.175837        -2.116050         0.227169
 H        -0.980758        -1.234282        -0.972982
 H        -0.355745         2.170427        -0.205874
 H        -1.408391         1.113613        -1.164577
 H        -2.681119         2.056489         1.078969
