19
Iteration:  3987charge 0 multiplicity 1
 C        -3.751318        -0.403124         1.287601
 C        -2.305181        -0.223947         1.629389
 C        -1.495194        -1.441542         1.410176
 C        -0.050768        -1.089546         0.887592
 C         0.035202         0.199504         0.014650
 O         0.264827         0.174253        -1.147768
 C        -0.385742         1.477483         0.775993
 C        -1.847742         1.128817         1.285999
 O        -2.154043         0.785940         2.654187
 H        -4.183990        -1.485218         1.417380
 H        -4.492109         0.193336         1.898304
 H        -3.992132        -0.150011         0.236770
 H        -1.567787        -2.153788         2.322171
 H        -2.198690        -2.007374         0.686078
 H         0.593254        -0.920721         1.750824
 H         0.454420        -1.873323         0.235285
 H         0.208692         1.613343         1.706904
 H        -0.260152         2.280466         0.097124
 H        -2.610942         1.654045         0.818712
