19
Iteration:  4467
 C        -3.896848        -0.562731         1.998377
 C        -2.443249        -0.100441         1.671548
 C        -1.605959        -1.364509         1.298272
 C        -0.658964        -1.135688         0.098734
 C         0.139535         0.017337         0.098848
 O         1.286213         0.300329        -0.196276
 C        -0.857040         1.218839         0.271355
 C        -2.084580         1.185588         1.092081
 O        -1.761364         0.998764         2.414952
 H        -3.873998        -1.471840         2.655860
 H        -4.236474         0.235089         2.634014
 H        -4.438893        -0.621269         1.031536
 H        -0.929090        -1.550746         2.174119
 H        -2.249621        -2.285702         1.105445
 H        -0.182181        -2.096300        -0.192085
 H        -1.268617        -1.015223        -0.834378
 H        -0.206440         2.113605         0.347062
 H        -1.098180         1.197536        -0.759427
 H        -2.870364         1.904430         0.783768
