19
Iteration:  2415charge 0 multiplicity 1
 C        -3.938115        -0.385051         1.395702
 C        -2.448671        -0.121747         1.512108
 C        -1.493219        -1.348246         1.519476
 C        -0.187928        -1.295353         0.737631
 C         0.074288         0.086697         0.146964
 O         0.540491         0.081029        -0.954133
 C        -0.339994         1.405760         0.716772
 C        -1.833209         1.213931         1.136450
 O        -2.109689         0.946887         2.541979
 H        -4.102473        -1.482147         1.466729
 H        -4.454498         0.213174         2.210988
 H        -4.425008        -0.148669         0.421407
 H        -1.293623        -1.573308         2.609155
 H        -2.111188        -2.249284         1.175738
 H         0.706932        -1.602742         1.346874
 H        -0.396242        -1.839642        -0.196875
 H         0.126450         1.636447         1.633261
 H        -0.296654         2.144411        -0.015028
 H        -2.520384         2.069663         0.729758
