19
Iteration:   935charge 0 multiplicity 1
 C        -3.982225        -0.261397         1.713362
 C        -2.512629        -0.144047         1.416435
 C        -1.687156        -1.399743         1.134446
 C        -0.210680        -1.057030         0.951373
 C         0.095097         0.136049         0.060428
 O         0.763937         0.072528        -0.972303
 C        -0.442927         1.388842         0.677744
 C        -1.871398         1.195310         1.207673
 O        -1.960287         0.652505         2.514870
 H        -4.076798        -1.016591         2.557905
 H        -4.377766         0.676142         1.990725
 H        -4.680654        -0.674631         0.910515
 H        -1.898035        -2.156276         1.852044
 H        -2.177364        -1.744489         0.231739
 H         0.227244        -0.908555         1.959735
 H         0.340700        -1.786734         0.428476
 H         0.248004         1.677780         1.379429
 H        -0.489688         2.261974        -0.105752
 H        -2.497165         2.048478         0.939329
