19
Iteration:  1905charge 0 multiplicity 1
 C        -3.918686        -0.376866         1.857516
 C        -2.415990        -0.029131         1.666931
 C        -1.683321        -1.290515         1.366252
 C        -0.727690        -1.191932         0.178708
 C         0.145258         0.068322         0.186279
 O         1.356870         0.043465        -0.133977
 C        -0.820483         1.266516         0.096141
 C        -2.053748         1.213514         1.084758
 O        -1.735442         0.930865         2.473200
 H        -4.093942        -0.730226         2.845209
 H        -4.599364         0.522972         1.614562
 H        -4.070357        -1.144605         1.148414
 H        -1.128326        -1.823383         2.226880
 H        -2.369501        -2.108898         0.899173
 H        -0.099696        -2.096347        -0.050813
 H        -1.227137        -1.121531        -0.812905
 H        -0.320078         2.170061         0.301392
 H        -1.259325         1.259229        -0.907192
 H        -2.914187         1.852923         0.871475
