19
Iteration:  3744
 C        -4.003722        -0.447131         2.076316
 C        -2.565859        -0.156489         1.654048
 C        -1.805903        -1.427654         1.130933
 C        -0.325600        -1.225562         0.401887
 C         0.058027         0.167360        -0.026298
 O         1.257283         0.459314        -0.170423
 C        -0.963515         1.391578         0.096939
 C        -2.056554         1.181800         1.023637
 O        -1.550681         0.632630         2.414874
 H        -4.077886        -1.474973         2.462063
 H        -4.200575         0.360437         2.870452
 H        -4.782692        -0.372301         1.249082
 H        -1.479059        -1.973437         2.075378
 H        -2.399721        -2.163250         0.467659
 H         0.448066        -1.417101         1.128586
 H        -0.205904        -1.929764        -0.416598
 H        -0.426636         2.248884         0.444493
 H        -1.358225         1.752198        -0.967267
 H        -2.705509         1.979873         1.269549
