19
Iteration:  1874
 C        -3.941834        -0.339177         1.859925
 C        -2.449583        -0.093932         1.599770
 C        -1.476241        -1.346262         1.549913
 C        -0.802005        -1.263558         0.096897
 C         0.072939         0.087579         0.031428
 O         1.253376         0.019150        -0.208758
 C        -0.615116         1.401134         0.338710
 C        -1.960579         1.195949         0.995406
 O        -1.951387         0.939329         2.398463
 H        -4.019097        -0.907322         2.813528
 H        -4.592470         0.615809         1.969877
 H        -4.373889        -0.978293         1.021154
 H        -0.710010        -1.488705         2.357886
 H        -2.080752        -2.300780         1.713580
 H         0.006176        -2.012230        -0.009221
 H        -1.514045        -1.430893        -0.686266
 H         0.147042         2.014673         0.915030
 H        -0.774003         1.915260        -0.590265
 H        -2.701822         1.820892         0.581664
