19
Iteration:  4326
 C        -3.733995        -0.377984         2.407048
 C        -2.457146        -0.115786         1.490381
 C        -1.946631        -1.327319         0.767192
 C        -0.457407        -1.293876         0.391323
 C         0.003636         0.089477         0.198763
 O         1.168933         0.444070         0.190250
 C        -1.030516         1.259534        -0.065410
 C        -2.075408         1.211059         1.056887
 O        -1.432010         0.681817         2.179238
 H        -3.442418        -0.220689         3.438559
 H        -4.567065         0.255996         2.352968
 H        -4.158052        -1.372786         2.384517
 H        -1.991621        -2.134392         1.434951
 H        -2.591643        -1.632404        -0.120493
 H         0.271624        -1.818213         1.037345
 H        -0.376319        -1.728263        -0.617093
 H        -0.379757         2.217096         0.019675
 H        -1.307854         1.331929        -1.143902
 H        -2.717098         2.035807         1.138116
