19
Iteration:  1740
 C        -3.882491        -0.305096         1.201977
 C        -2.472346        -0.025414         1.627825
 C        -1.394037        -1.156053         1.832455
 C        -0.333012        -1.306803         0.660458
 C         0.057042        -0.028172        -0.057659
 O         0.656901         0.056741        -1.116410
 C        -0.304465         1.126915         0.831666
 C        -1.804150         1.210432         1.253397
 O        -2.340095         1.024100         2.545032
 H        -4.604168        -0.449240         2.050057
 H        -4.221785         0.684495         0.605824
 H        -3.892289        -1.203964         0.599354
 H        -0.783713        -0.963761         2.756855
 H        -2.022644        -2.105234         1.935251
 H         0.603473        -1.828642         1.047631
 H        -0.572456        -2.103369        -0.015087
 H         0.158999         0.843765         1.794206
 H         0.278386         1.978712         0.356321
 H        -2.298842         1.953873         0.574335
