19
Iteration:  2056
 C        -3.689779        -0.160319         2.332134
 C        -2.357343        -0.081592         1.592650
 C        -2.082668        -1.301991         0.724317
 C        -0.537940        -1.362207         0.472952
 C         0.007469         0.136829         0.256900
 O         1.203972         0.378132         0.404649
 C        -1.114280         1.134372        -0.229892
 C        -2.017562         1.185007         0.898487
 O        -1.329660         0.645200         2.186841
 H        -3.605335        -0.515683         3.387223
 H        -4.228257         0.887571         2.314704
 H        -4.299541        -0.796448         1.702376
 H        -2.442385        -2.249805         1.151170
 H        -2.628340        -1.288347        -0.240246
 H        -0.067147        -1.724503         1.398339
 H        -0.280366        -1.904715        -0.484723
 H        -0.714421         2.096980        -0.359196
 H        -1.425835         0.733626        -1.300605
 H        -2.621707         2.072200         1.198643
