19
Iteration:  4508
 C        -3.936468        -0.481092         1.872176
 C        -2.439512        -0.272054         1.632465
 C        -1.349186        -1.273974         1.480072
 C        -0.621358        -1.191425         0.128062
 C         0.024382         0.166154        -0.122159
 O         1.222173         0.056552        -0.211850
 C        -0.800943         1.435105         0.235583
 C        -2.102351         1.184173         1.125978
 O        -1.878598         0.912171         2.465473
 H        -4.291283        -1.589233         2.056441
 H        -4.143387         0.112885         2.757163
 H        -4.519082         0.116729         1.125773
 H        -0.655484        -1.235968         2.371151
 H        -1.710780        -2.240487         1.587902
 H         0.152506        -1.897789         0.071700
 H        -1.302003        -1.469516        -0.689646
 H        -0.159741         2.033328         0.807234
 H        -1.150921         2.125823        -0.595733
 H        -2.861044         2.021883         1.008807
