19
Iteration:  4811charge 0 multiplicity 1
 C        -3.918558        -0.561735         1.419009
 C        -2.380892        -0.147796         1.712569
 C        -1.394373        -1.253409         1.900179
 C        -0.437794        -1.248633         0.540409
 C         0.071168         0.123321        -0.080992
 O         0.685334         0.242508        -1.154435
 C        -0.318903         1.275652         0.843908
 C        -1.811441         1.116139         1.176379
 O        -2.282485         1.034589         2.459457
 H        -3.966493        -1.697175         1.356873
 H        -4.546668        -0.091402         2.134793
 H        -4.224949        -0.121301         0.450756
 H        -0.756510        -1.172683         2.835837
 H        -1.927188        -2.224359         1.972111
 H         0.525842        -1.719898         0.692258
 H        -0.997964        -1.858153        -0.192009
 H         0.239706         1.312508         1.770303
 H         0.129450         2.212388         0.291351
 H        -2.512857         1.580858         0.431858
