19
Iteration:  1754charge 0 multiplicity 1
 C        -3.892529        -0.347830         1.195394
 C        -2.413711        -0.042732         1.647256
 C        -1.386299        -1.129011         1.840207
 C        -0.442348        -1.380359         0.598378
 C        -0.050283        -0.090227        -0.110907
 O         0.795234         0.133167        -0.988545
 C        -0.376238         1.088690         0.774721
 C        -1.782609         1.209207         1.181943
 O        -2.282316         1.078995         2.603090
 H        -4.478465        -0.430282         2.092637
 H        -4.334538         0.577166         0.569834
 H        -4.044535        -1.190760         0.507383
 H        -0.895501        -0.918276         2.759713
 H        -1.765556        -2.058963         2.039831
 H         0.585300        -1.674673         1.008303
 H        -0.876882        -2.121355        -0.128020
 H         0.470217         0.991438         1.584864
 H        -0.212232         2.075650         0.273712
 H        -2.406779         1.951562         0.704098
