19
Iteration:  4976charge 0 multiplicity 1
 C        -3.853509        -0.686997         1.546280
 C        -2.504841        -0.150514         1.747060
 C        -1.392899        -1.170716         1.727957
 C        -0.563941        -1.188581         0.358998
 C         0.116021         0.124150        -0.078407
 O         0.865320         0.166535        -1.057849
 C        -0.360825         1.267418         0.813060
 C        -1.851805         1.114735         1.240588
 O        -2.281045         1.131776         2.529363
 H        -4.459957        -1.090906         2.421690
 H        -4.406866        -0.058197         0.883794
 H        -3.757286        -1.674903         0.974861
 H        -0.720072        -0.980110         2.592098
 H        -1.717326        -2.160875         1.963087
 H         0.120940        -2.033478         0.358869
 H        -1.191711        -1.476282        -0.521306
 H         0.404440         1.320430         1.554570
 H        -0.090838         2.318590         0.279833
 H        -2.465252         1.648822         0.451885
