19
Iteration:  3911charge 0 multiplicity 1
 C        -3.933392        -0.461875         1.437858
 C        -2.469854        -0.179481         1.586460
 C        -1.485782        -1.414058         1.203799
 C        -0.037020        -1.014528         0.972612
 C         0.098798         0.196374        -0.016912
 O         0.437048         0.166942        -1.145625
 C        -0.419237         1.441744         0.691460
 C        -1.815918         1.152781         1.290774
 O        -2.114593         0.700712         2.714389
 H        -4.331019        -0.957201         2.366400
 H        -4.459287         0.508744         1.433057
 H        -4.358104        -1.078802         0.686883
 H        -1.521180        -2.195076         2.040309
 H        -2.019908        -1.941266         0.373221
 H         0.390454        -0.748049         1.938238
 H         0.685872        -1.661795         0.413831
 H         0.408262         1.659969         1.414373
 H        -0.615257         2.265401         0.046639
 H        -2.471224         1.894089         0.960662
