19
Iteration:  1541
 C        -3.988429        -0.428406         1.335238
 C        -2.486721        -0.054421         1.554120
 C        -1.325785        -1.081307         1.777063
 C        -0.512835        -1.416629         0.497629
 C         0.055608        -0.080052         0.033434
 O         0.652947         0.169548        -1.013470
 C        -0.205185         1.068157         0.969129
 C        -1.717333         1.158173         1.155428
 O        -2.300290         1.179705         2.428474
 H        -4.291451        -1.053085         2.286594
 H        -4.529173         0.409764         1.146075
 H        -4.039772        -1.057858         0.341618
 H        -0.657787        -0.597694         2.472732
 H        -1.604020        -1.919994         2.454470
 H         0.374191        -1.946740         0.989067
 H        -0.886630        -1.903714        -0.412382
 H         0.338488         1.033730         1.934465
 H         0.177368         1.940785         0.544453
 H        -2.242645         1.814941         0.498410
