19
Iteration:   168
 C        -3.931775        -0.118981         2.174183
 C        -2.581756        -0.035224         1.510626
 C        -1.996738        -1.428040         1.092623
 C        -0.655741        -1.287094         0.272495
 C         0.079885         0.049377         0.166128
 O         1.351554         0.106738         0.112954
 C        -0.703290         1.285877         0.002658
 C        -1.957046         1.264786         0.967877
 O        -1.547251         0.772821         2.278488
 H        -3.866063        -0.568548         3.201184
 H        -4.485826         0.799855         2.298540
 H        -4.558683        -0.869356         1.774019
 H        -1.893750        -1.936730         2.059625
 H        -2.713008        -2.068329         0.526675
 H         0.156064        -1.894183         0.827687
 H        -0.642701        -1.687075        -0.707085
 H        -0.138330         2.216555         0.232565
 H        -1.056160         1.294706        -1.025175
 H        -2.547468         2.154056         1.098258
