19
Iteration:  3425charge 0 multiplicity 1
 C        -3.993435        -0.538075         1.626487
 C        -2.425323        -0.123272         1.664891
 C        -1.383651        -1.262123         1.577854
 C        -0.534259        -1.218112         0.313615
 C         0.167148         0.096590         0.000694
 O         1.083440         0.301735        -0.761899
 C        -0.619117         1.276432         0.628626
 C        -2.033176         1.159939         1.156658
 O        -2.094098         0.878763         2.528974
 H        -4.250696        -0.585197         2.724732
 H        -4.644982         0.347783         1.310131
 H        -4.168958        -1.521821         1.102457
 H        -0.781229        -1.214171         2.530557
 H        -1.769405        -2.317198         1.752980
 H         0.305634        -1.963726         0.321803
 H        -1.104898        -1.587550        -0.620870
 H         0.065320         1.757122         1.262189
 H        -0.689468         1.962254        -0.236837
 H        -2.789282         1.829946         0.728764
