19
Iteration:  4956charge 0 multiplicity 1
 C        -3.901311        -0.667291         1.441745
 C        -2.358455        -0.105383         1.668725
 C        -1.249445        -1.201261         1.713435
 C        -0.556137        -1.291726         0.392464
 C         0.062468         0.069484        -0.036779
 O         0.757358         0.241440        -1.038221
 C        -0.367767         1.204713         0.880039
 C        -1.930749         1.140116         1.125927
 O        -2.260883         1.142181         2.574707
 H        -4.266884        -0.497247         2.442338
 H        -4.526227        -0.077199         0.732486
 H        -3.899859        -1.749895         1.292896
 H        -0.558471        -1.000099         2.591995
 H        -1.703437        -2.075803         2.108641
 H         0.277230        -1.958500         0.440610
 H        -1.178338        -1.665189        -0.437785
 H         0.054535         1.346688         1.816805
 H         0.030417         2.184022         0.414590
 H        -2.434798         1.868777         0.550976
