19
Iteration:   740
 C        -3.662151        -0.302452         2.390272
 C        -2.419026        -0.044124         1.543060
 C        -1.968035        -1.406848         0.928023
 C        -0.686955        -1.296990         0.030170
 C         0.049674         0.094569         0.074708
 O         1.048441         0.320426         0.701571
 C        -0.881097         1.146040        -0.275335
 C        -1.930405         1.187754         0.869761
 O        -1.424022         0.874403         2.228925
 H        -3.328141        -0.541119         3.424952
 H        -4.233451         0.530029         2.542559
 H        -4.347528        -1.089224         2.021313
 H        -1.737824        -1.962245         1.888505
 H        -2.814418        -1.936435         0.437363
 H        -0.054629        -2.180424         0.331064
 H        -0.941049        -1.405173        -0.995890
 H        -0.491342         2.246622        -0.235034
 H        -1.363792         0.901320        -1.206367
 H        -2.539124         2.076650         0.979883
