19
Iteration:  2475charge 0 multiplicity 1
 C        -3.799044        -0.318852         1.421507
 C        -2.386891        -0.085617         1.702836
 C        -1.427386        -1.342811         1.549450
 C        -0.333075        -1.304521         0.545534
 C         0.040269         0.024779        -0.046818
 O         0.811868         0.130348        -0.954876
 C        -0.526463         1.258581         0.764637
 C        -1.979512         1.182634         1.168621
 O        -2.240331         0.992719         2.585692
 H        -4.336260        -0.600170         2.322193
 H        -4.169434         0.690966         1.213153
 H        -3.923899        -0.919374         0.528902
 H        -0.993377        -1.583936         2.510492
 H        -2.082001        -2.145860         1.337949
 H         0.620167        -1.518013         0.928123
 H        -0.313069        -2.111078        -0.170621
 H        -0.001622         1.461822         1.809018
 H        -0.221435         2.208014         0.146018
 H        -2.657211         1.864838         0.781755
