19
Iteration:  1026charge 0 multiplicity 1
 C        -3.804462        -0.178955         0.965040
 C        -2.343899        -0.133948         1.378241
 C        -1.440072        -1.257878         1.440207
 C         0.064605        -1.018685         1.136805
 C        -0.099474         0.086662         0.137649
 O        -0.128063         0.013653        -1.054955
 C        -0.256610         1.345070         0.823238
 C        -1.690317         1.182080         1.313822
 O        -2.003385         0.587033         2.633703
 H        -4.366501        -1.084833         1.207510
 H        -4.263286         0.844827         1.366498
 H        -3.911564        -0.137126        -0.139549
 H        -1.507793        -1.936793         2.390332
 H        -1.825773        -2.075042         0.700274
 H         0.569252        -0.776167         2.076556
 H         0.484049        -2.046838         0.786145
 H         0.571218         1.456515         1.576303
 H        -0.288287         2.139278         0.191276
 H        -2.412556         1.984696         1.014801
