19
Iteration:   549charge 0 multiplicity 1
 C        -3.871376        -0.412150         1.457737
 C        -2.462285        -0.091569         1.576138
 C        -1.441904        -1.209387         1.673483
 C        -0.665517        -1.272300         0.393309
 C         0.050717         0.033132        -0.074754
 O         1.031785        -0.000764        -0.801200
 C        -0.454009         1.307131         0.696102
 C        -1.814272         1.249872         1.211433
 O        -2.210524         0.991542         2.547280
 H        -4.144434        -0.555321         2.531715
 H        -4.535019         0.455828         1.203511
 H        -4.008092        -1.401636         1.024791
 H        -0.820076        -1.141113         2.605017
 H        -1.928708        -2.277151         1.726233
 H         0.166175        -1.951317         0.570334
 H        -1.234595        -1.684890        -0.398929
 H         0.311678         1.425035         1.449558
 H        -0.366474         2.255137         0.074745
 H        -2.544707         2.052077         0.843763
