19
Iteration:  3471
 C        -3.842297        -0.556532         1.712569
 C        -2.457090        -0.124703         1.639111
 C        -1.489150        -1.352350         1.545511
 C        -0.596698        -1.253401         0.358230
 C         0.006494         0.150940        -0.006967
 O         1.151762         0.289313        -0.469984
 C        -0.750051         1.401804         0.310200
 C        -2.009004         1.173404         1.160058
 O        -1.890802         0.841720         2.509411
 H        -4.153113        -1.619680         1.930628
 H        -4.491162         0.080361         2.242326
 H        -4.120375        -0.385263         0.606527
 H        -1.028662        -1.536967         2.564382
 H        -2.081278        -2.265145         1.367999
 H         0.298215        -1.877644         0.400873
 H        -0.949558        -1.506319        -0.619744
 H        -0.159832         2.193715         0.690667
 H        -1.043276         1.741499        -0.724912
 H        -2.645138         2.098685         1.074395
