19
Iteration:   420charge 0 multiplicity 1
 C        -3.681692        -0.361144         0.991055
 C        -2.299007        -0.011105         1.506550
 C        -1.538818        -1.322811         1.750079
 C        -0.291939        -1.333430         0.857375
 C        -0.083075         0.013132         0.090799
 O         0.214954         0.034867        -1.122168
 C        -0.189482         1.299984         0.946156
 C        -1.634338         1.308108         1.301532
 O        -2.222245         0.973011         2.494946
 H        -4.181363        -0.855584         1.839118
 H        -4.278021         0.681890         0.777840
 H        -3.807579        -1.045067         0.181850
 H        -1.265406        -1.263010         2.777290
 H        -2.076729        -2.228006         1.616759
 H         0.654593        -1.595587         1.335499
 H        -0.344051        -2.108786        -0.002909
 H         0.339014         1.236251         1.963366
 H         0.056779         2.251881         0.361741
 H        -2.254228         1.974168         0.627365
