19
Iteration:  2637
 C        -3.980391        -0.487935         1.528173
 C        -2.531328        -0.041646         1.644917
 C        -1.482218        -1.215429         1.601091
 C        -0.511526        -1.369153         0.367126
 C         0.132318        -0.017330        -0.083880
 O         1.150631         0.212026        -0.736386
 C        -0.546302         1.264002         0.473766
 C        -1.941323         1.275390         1.264712
 O        -2.153454         0.970285         2.681711
 H        -4.084201        -1.412682         2.113929
 H        -4.510591         0.278626         2.031882
 H        -4.334234        -0.655186         0.412199
 H        -0.817333        -1.187420         2.493383
 H        -1.986703        -2.196276         1.587708
 H         0.267240        -2.059582         0.648110
 H        -0.937585        -1.843558        -0.589419
 H         0.241642         1.699671         1.000152
 H        -0.665127         1.884297        -0.445361
 H        -2.661219         1.973915         0.854447
