19
Iteration:  1448
 C        -3.928118        -0.323647         1.641415
 C        -2.469043        -0.048265         1.570363
 C        -1.461121        -1.088962         1.597488
 C        -0.701523        -1.298723         0.233025
 C         0.091600        -0.053465        -0.001033
 O         1.241850         0.069125        -0.335211
 C        -0.745895         1.220126         0.288245
 C        -1.929757         1.180197         1.095779
 O        -1.939243         0.881808         2.591181
 H        -4.048847        -0.998960         2.456925
 H        -4.606189         0.701860         1.695714
 H        -4.306484        -0.793949         0.753091
 H        -0.687942        -1.049198         2.426034
 H        -1.952461        -2.072229         1.821740
 H        -0.233326        -2.251751         0.139662
 H        -1.515660        -1.198671        -0.512291
 H        -0.120151         1.959641         0.667434
 H        -0.987233         1.597068        -0.747382
 H        -2.504726         2.123439         0.891488
