19
Iteration:  1050charge 0 multiplicity 1
 C        -3.737727        -0.146146         0.983304
 C        -2.299296        -0.155311         1.488861
 C        -1.431356        -1.448331         1.336173
 C         0.079481        -1.180040         1.051571
 C         0.068347         0.133718         0.168811
 O        -0.187729        -0.087644        -0.993448
 C        -0.293477         1.468760         0.822329
 C        -1.797428         1.249166         1.344995
 O        -2.044968         0.771499         2.601970
 H        -4.165752        -1.168801         1.012982
 H        -4.404468         0.707030         1.449441
 H        -3.767624        -0.007016        -0.101852
 H        -1.492754        -2.395273         2.089997
 H        -1.935832        -1.979567         0.413076
 H         0.422989        -1.070034         2.104072
 H         0.800465        -1.965235         0.556204
 H         0.249110         1.813512         1.771451
 H        -0.379268         2.278510         0.193769
 H        -2.562894         2.056974         1.195982
