19
Iteration:  1033charge 0 multiplicity 1
 C        -3.792160        -0.141070         0.952530
 C        -2.360585        -0.125756         1.441712
 C        -1.437268        -1.368161         1.378100
 C         0.114217        -1.044037         1.125308
 C        -0.021106         0.071635         0.173469
 O        -0.175086        -0.008140        -1.038795
 C        -0.318973         1.391276         0.855710
 C        -1.702428         1.182727         1.276796
 O        -2.007179         0.629304         2.663218
 H        -4.460350        -1.018182         1.078830
 H        -4.240028         0.652950         1.425819
 H        -3.771400        -0.055420        -0.164649
 H        -1.611758        -1.846957         2.275637
 H        -1.766460        -2.052152         0.664682
 H         0.764095        -0.837257         1.990401
 H         0.378186        -1.944481         0.703390
 H         0.443855         1.658563         1.538300
 H        -0.180450         2.226680        -0.011429
 H        -2.319037         1.947660         0.841403
