19
Iteration:   615charge 0 multiplicity 1
 C        -3.902965        -0.347418         1.817686
 C        -2.473948        -0.061595         1.632372
 C        -1.644668        -1.361462         1.491026
 C        -0.662426        -1.301200         0.317996
 C         0.088491         0.049518         0.041596
 O         1.260082         0.068968        -0.355852
 C        -0.655055         1.426670         0.224017
 C        -1.945114         1.217272         1.041059
 O        -1.906541         0.903753         2.460285
 H        -4.007297        -1.234668         2.466979
 H        -4.531725         0.564933         2.275385
 H        -4.405758        -0.795436         0.909122
 H        -1.104127        -1.532577         2.463050
 H        -2.363145        -2.302280         1.420977
 H         0.058838        -2.086403         0.377144
 H        -1.206025        -1.497126        -0.577029
 H        -0.025708         2.042550         0.822427
 H        -0.906168         1.939055        -0.769911
 H        -2.662813         2.161963         0.935805
