19
Iteration:  1017
 C        -3.807854        -0.214921         0.974123
 C        -2.343583        -0.104386         1.368047
 C        -1.448628        -1.324345         1.463031
 C        -0.024508        -1.033796         1.153614
 C        -0.067134         0.081287         0.099711
 O        -0.082403         0.007159        -1.134798
 C        -0.225616         1.362052         0.833331
 C        -1.701319         1.211469         1.404638
 O        -2.015959         0.589147         2.584509
 H        -4.223111        -1.021435         1.563653
 H        -4.415862         0.726688         1.328364
 H        -3.904754        -0.247490        -0.100880
 H        -1.573543        -1.704274         2.591618
 H        -1.782267        -2.021088         0.604766
 H         0.431186        -0.557553         2.021928
 H         0.643136        -1.897488         0.740363
 H         0.456492         1.404218         1.754830
 H        -0.199530         2.187727         0.228669
 H        -2.331276         2.128624         1.275692
