19
Iteration:  2910
 C        -3.773662        -0.290419         2.450774
 C        -2.484270        -0.141167         1.496089
 C        -1.821168        -1.432541         1.012666
 C        -0.555711        -1.199515         0.144395
 C         0.039346         0.146184         0.256912
 O         1.238334         0.298149         0.519158
 C        -1.003598         1.276688        -0.142705
 C        -2.134064         1.190038         0.793919
 O        -1.474351         0.732430         2.051576
 H        -3.357772        -0.715280         3.313490
 H        -4.116252         0.748585         2.659611
 H        -4.490011        -0.984323         1.990561
 H        -1.378346        -1.997111         1.805054
 H        -2.492010        -2.183767         0.623812
 H         0.089370        -2.000751         0.205208
 H        -0.965058        -1.031226        -0.863395
 H        -0.589836         2.264926         0.024782
 H        -1.103310         1.120340        -1.153576
 H        -2.861580         1.984342         0.914607
