19
Iteration:  3288charge 0 multiplicity 1
 C        -3.821346        -0.489509         1.211778
 C        -2.373753        -0.139626         1.679481
 C        -1.372593        -1.258282         1.754635
 C        -0.321586        -1.258063         0.619971
 C         0.036090         0.107778        -0.038570
 O         0.615142         0.173468        -1.093904
 C        -0.405515         1.328913         0.825336
 C        -1.801986         1.191672         1.215120
 O        -2.308658         0.963504         2.618347
 H        -4.034493        -1.595587         1.368759
 H        -4.616760         0.038586         1.623409
 H        -3.823901        -0.424088         0.099518
 H        -0.991794        -1.200710         2.779922
 H        -1.868913        -2.187005         1.856361
 H         0.634579        -1.762682         0.917492
 H        -0.702827        -1.887047        -0.269873
 H         0.170934         1.341561         1.750549
 H        -0.156365         2.229587         0.213091
 H        -2.668775         1.755350         0.826023
