19
Iteration:  1673charge 0 multiplicity 1
 C        -3.734743        -0.331495         1.012982
 C        -2.362232        -0.052140         1.491522
 C        -1.494543        -1.254309         1.814812
 C        -0.189966        -1.461999         0.895573
 C         0.045358        -0.015914         0.109895
 O         0.049076         0.150325        -1.112847
 C        -0.158013         1.214165         1.014479
 C        -1.650195         1.206014         1.160394
 O        -2.186646         1.123023         2.413282
 H        -4.266235        -1.290487         1.448310
 H        -4.436103         0.531078         1.163385
 H        -3.736465        -0.695303        -0.079641
 H        -1.324251        -1.147709         2.921695
 H        -2.029791        -2.253385         1.503932
 H         0.689275        -1.533434         1.616383
 H        -0.210221        -2.352193         0.258934
 H         0.202620         1.075964         2.019839
 H         0.190777         2.205546         0.709334
 H        -2.242221         1.730906         0.395450
