19
Iteration:  3644
 C        -3.640642        -0.403767         2.305666
 C        -2.338605        -0.215994         1.508991
 C        -1.737291        -1.483088         1.020217
 C        -0.629421        -1.213930         0.022406
 C        -0.061557         0.271032         0.196628
 O         1.065816         0.426564         0.562920
 C        -1.036089         1.321472        -0.135137
 C        -2.069668         1.170027         0.940470
 O        -1.420129         0.691261         2.141266
 H        -3.552540        -0.173142         3.429867
 H        -4.389595         0.330172         2.045091
 H        -4.226712        -1.422530         2.044877
 H        -1.272397        -1.967910         1.926274
 H        -2.714204        -2.040912         0.732249
 H         0.281439        -1.798266         0.122431
 H        -1.118301        -1.201311        -0.990265
 H        -0.586770         2.309771        -0.208309
 H        -1.698606         0.997800        -1.079271
 H        -2.729210         2.020686         1.199749
