19
Iteration:  4219
 C        -4.042855        -0.394499         2.131074
 C        -2.479876        -0.195236         1.681786
 C        -1.769861        -1.344892         0.945852
 C        -0.392066        -1.147445         0.515695
 C         0.063264         0.227855         0.049813
 O         1.260226         0.322312        -0.222361
 C        -1.019307         1.366603        -0.021792
 C        -2.018119         1.126980         1.162655
 O        -1.493649         0.631022         2.435610
 H        -4.183066        -1.479042         2.171327
 H        -4.275646         0.156104         3.099530
 H        -4.694044         0.028147         1.287980
 H        -1.947378        -2.270450         1.520068
 H        -2.478479        -1.374820         0.114424
 H         0.368708        -1.275060         1.337066
 H         0.004960        -1.924726        -0.135172
 H        -0.640738         2.443743        -0.016313
 H        -1.624421         1.156550        -0.871822
 H        -2.721358         1.897817         1.289182
