19
Iteration:  4867
 C        -3.755079        -0.506694         1.274139
 C        -2.337175        -0.093494         1.555620
 C        -1.352203        -1.275716         1.740040
 C        -0.350538        -1.323178         0.623176
 C        -0.119070         0.095841        -0.085892
 O         0.592189         0.134233        -1.056635
 C        -0.427418         1.377696         0.761265
 C        -1.821856         1.243750         1.254348
 O        -2.243543         0.945178         2.634538
 H        -4.071809        -1.292416         2.036689
 H        -4.463358         0.235075         1.483327
 H        -3.850211        -0.941833         0.241385
 H        -0.719140        -0.973542         2.670165
 H        -1.799769        -2.199743         2.077848
 H         0.624070        -1.517312         0.994536
 H        -0.699986        -2.052476        -0.126320
 H         0.077956         1.206603         1.685019
 H        -0.064540         2.322321         0.108350
 H        -2.537605         2.014082         0.874183
