19
Iteration:  3677charge 0 multiplicity 1
 C        -3.800751        -0.475900         2.371285
 C        -2.445549        -0.164604         1.547932
 C        -1.796428        -1.357481         1.000837
 C        -0.508613        -1.246549         0.074965
 C         0.067731         0.207777         0.017432
 O         1.191454         0.468592         0.368544
 C        -0.965172         1.280253        -0.091545
 C        -2.069370         1.124114         0.976394
 O        -1.555091         0.747935         2.274344
 H        -3.429470        -0.710958         3.411073
 H        -4.490004         0.346152         2.272935
 H        -4.269815        -1.509115         2.050634
 H        -1.651114        -1.942338         1.942579
 H        -2.689564        -1.881969         0.470413
 H         0.282848        -1.903981         0.407817
 H        -0.754396        -1.617630        -0.937906
 H        -0.491210         2.243213         0.021646
 H        -1.645880         1.369632        -1.049332
 H        -2.662100         2.025760         1.152325
