19
Iteration:  2949
 C        -3.821914        -0.203263         2.066001
 C        -2.398673        -0.160037         1.620965
 C        -1.770383        -1.540770         1.071059
 C        -0.559326        -1.336535         0.172027
 C         0.027751         0.148911         0.027131
 O         1.231495         0.419814         0.265180
 C        -0.934324         1.236078        -0.113908
 C        -1.983127         1.131021         1.084178
 O        -1.618041         0.832582         2.413841
 H        -3.902564        -0.823398         3.047571
 H        -4.180480         0.750433         2.319588
 H        -4.666039        -0.632610         1.472182
 H        -1.649992        -2.106067         2.039106
 H        -2.639686        -1.987259         0.495688
 H         0.325630        -2.034622         0.449890
 H        -0.791134        -1.591021        -0.892955
 H        -0.412956         2.255109        -0.161832
 H        -1.751189         1.129099        -0.969180
 H        -2.700001         1.988467         1.009269
