19
Iteration:  2862
 C        -3.679389        -0.336552         2.397582
 C        -2.426232        -0.113770         1.547206
 C        -1.740599        -1.354425         0.995370
 C        -0.556179        -1.374411        -0.058676
 C         0.004108         0.084149         0.145125
 O         1.054236         0.324031         0.651732
 C        -0.980475         1.182274        -0.163141
 C        -2.061345         1.218431         0.908556
 O        -1.531956         0.931985         2.152909
 H        -3.304966        -0.963209         3.280460
 H        -3.981345         0.654781         2.587366
 H        -4.287777        -0.952694         1.724069
 H        -1.475130        -2.085292         1.717705
 H        -2.593247        -1.928057         0.548162
 H         0.256808        -2.107472         0.313435
 H        -0.874602        -1.385564        -1.100677
 H        -0.370729         2.136246        -0.110819
 H        -1.462641         1.122846        -1.125229
 H        -2.826140         2.038134         0.832960
