19
Iteration:   302
 C        -3.916730        -0.141073         1.424571
 C        -2.475595        -0.017706         1.509568
 C        -1.641957        -1.201564         1.156839
 C        -0.116928        -1.114835         1.190935
 C         0.077703        -0.067144         0.137384
 O         0.581146        -0.136562        -1.007890
 C        -0.516005         1.315066         0.550818
 C        -1.821897         1.228177         1.268681
 O        -1.949788         0.699116         2.572451
 H        -4.277370        -1.036613         1.844448
 H        -4.392816         0.841164         1.870908
 H        -4.072933        -0.117422         0.341624
 H        -2.026375        -2.067306         1.743132
 H        -1.948664        -1.446526         0.086430
 H         0.208614        -0.742942         2.133033
 H         0.481366        -2.101436         1.014190
 H         0.142890         1.855009         1.172770
 H        -0.707017         1.905855        -0.395289
 H        -2.443651         2.163142         1.062241
