19
Iteration:  3116charge 0 multiplicity 1
 C        -4.023716        -0.272779         1.553492
 C        -2.491793        -0.172523         1.541845
 C        -1.564305        -1.235409         0.978271
 C        -0.131332        -0.928975         1.186096
 C         0.073615         0.141217         0.114812
 O         0.645552        -0.052260        -0.911804
 C        -0.605279         1.409812         0.483593
 C        -1.909676         1.174168         1.252867
 O        -1.797002         0.529817         2.575222
 H        -4.407324        -0.697304         2.432477
 H        -4.533868         0.602096         1.085684
 H        -4.376902        -1.003138         0.810087
 H        -1.826017        -2.180968         1.432804
 H        -1.781357        -1.370933        -0.155071
 H         0.114974        -0.513097         2.130416
 H         0.579929        -1.794803         1.139811
 H         0.039645         2.153487         1.058178
 H        -0.808149         2.037743        -0.449946
 H        -2.611755         2.003587         1.342972
