19
Iteration:   237
 C        -3.989530        -0.098837         1.809520
 C        -2.539927        -0.003302         1.513717
 C        -1.882881        -1.278607         0.970931
 C        -0.327117        -1.257776         0.951478
 C         0.132941        -0.029417         0.137183
 O         1.058306         0.025604        -0.591682
 C        -0.707090         1.245741         0.223964
 C        -1.866409         1.260378         1.136224
 O        -1.726845         0.717473         2.538138
 H        -4.219879        -0.934442         2.397113
 H        -4.452596         0.846592         2.227015
 H        -4.483433        -0.339107         0.887452
 H        -2.210173        -2.140302         1.638734
 H        -2.354010        -1.563662        -0.059442
 H        -0.006847        -1.119099         1.964372
 H         0.066997        -2.244130         0.541417
 H        -0.030507         1.929161         0.691139
 H        -0.813584         1.700923        -0.798002
 H        -2.486160         2.190727         1.229458
