19
Iteration:  1750charge 0 multiplicity 1
 C        -3.895198        -0.334261         1.188075
 C        -2.406104        -0.048788         1.662928
 C        -1.378833        -1.107277         1.837516
 C        -0.393862        -1.355986         0.605635
 C        -0.037427        -0.087445        -0.100344
 O         0.763599         0.123783        -1.020840
 C        -0.362220         1.055931         0.780005
 C        -1.759847         1.214135         1.196831
 O        -2.311647         1.063672         2.585241
 H        -4.583917        -0.446765         2.075999
 H        -4.314930         0.552940         0.572659
 H        -4.126537        -1.168395         0.528229
 H        -0.842008        -0.938498         2.831272
 H        -1.996761        -2.101551         2.023185
 H         0.570329        -1.613375         1.078101
 H        -0.832329        -2.032545        -0.080777
 H         0.367684         0.949900         1.533884
 H        -0.116422         2.073030         0.381057
 H        -2.433377         1.978503         0.744503
