19
Iteration:  3980charge 0 multiplicity 1
 C        -3.808486        -0.422007         1.220301
 C        -2.297966        -0.196843         1.677946
 C        -1.522289        -1.478937         1.441632
 C        -0.036569        -1.138566         0.895499
 C         0.003949         0.196118         0.055951
 O         0.272123         0.228016        -1.183703
 C        -0.438418         1.468940         0.801464
 C        -1.788927         1.138286         1.263394
 O        -2.085094         0.808961         2.657608
 H        -4.174087        -1.424584         1.273673
 H        -4.423740         0.140142         1.838255
 H        -4.034226        -0.209962         0.159793
 H        -1.425333        -2.202487         2.288196
 H        -2.019510        -2.006439         0.691933
 H         0.674818        -0.999667         1.771345
 H         0.178667        -2.094237         0.468234
 H         0.208791         1.814853         1.661444
 H        -0.544399         2.222837         0.003073
 H        -2.652512         1.652539         0.757747
