19
Iteration:  2711
 C        -4.021270        -0.432085         1.897212
 C        -2.489983        -0.111085         1.500188
 C        -1.671213        -1.310308         1.374741
 C        -0.494329        -1.266084         0.411440
 C         0.160574         0.101390         0.084590
 O         1.211061         0.206158        -0.472405
 C        -0.714328         1.334793         0.327322
 C        -2.022484         1.199386         1.070653
 O        -1.867073         0.857287         2.458521
 H        -4.064537        -0.612198         2.992392
 H        -4.505906         0.461540         1.696764
 H        -4.405471        -1.270800         1.289548
 H        -1.305366        -1.432945         2.412099
 H        -2.227442        -2.219495         1.008365
 H         0.248509        -2.048990         0.739817
 H        -0.593500        -1.703398        -0.557720
 H        -0.078764         2.013406         1.107713
 H        -0.652759         1.821695        -0.644620
 H        -2.733700         2.071559         0.961370
