19
Iteration:  2768
 C        -3.858909        -0.310893         2.060725
 C        -2.452565        -0.144639         1.543257
 C        -1.699371        -1.414973         1.227957
 C        -0.511807        -1.200664         0.274469
 C         0.098409         0.148674         0.114658
 O         1.253377         0.168886        -0.052975
 C        -0.872842         1.318118         0.120421
 C        -2.084065         1.164657         0.982644
 O        -1.748976         0.863587         2.381092
 H        -3.810452        -1.157178         2.712243
 H        -4.221656         0.538942         2.538047
 H        -4.496087        -0.612686         1.204266
 H        -1.360434        -1.786906         2.230671
 H        -2.358570        -2.248315         0.942709
 H         0.244700        -1.858986         0.562417
 H        -0.884461        -1.327658        -0.739950
 H        -0.364963         2.312411         0.327150
 H        -1.143799         1.380747        -0.983943
 H        -2.942850         1.804101         0.858891
