19
Iteration:  4108charge 0 multiplicity 1
 C        -4.049057        -0.442291         1.715172
 C        -2.542940        -0.095090         1.497968
 C        -1.666571        -1.295528         1.029205
 C        -0.118646        -1.003195         1.079904
 C         0.141652         0.150690         0.023630
 O         0.738071         0.222128        -1.015338
 C        -0.605268         1.392121         0.391322
 C        -1.815966         1.209700         1.363676
 O        -1.865129         0.480582         2.634297
 H        -4.115845        -0.818612         2.803811
 H        -4.737224         0.363087         1.643789
 H        -4.538445        -1.128059         0.981980
 H        -1.909642        -2.191041         1.617649
 H        -1.780323        -1.591142        -0.047052
 H         0.185189        -0.824860         2.130922
 H         0.423527        -1.856202         0.686347
 H         0.053838         2.214106         0.776612
 H        -1.106677         1.831361        -0.402733
 H        -2.421037         2.036626         1.462146
