19
Iteration:  2905
 C        -3.721044        -0.321673         2.464664
 C        -2.478078        -0.146782         1.472026
 C        -1.853430        -1.437658         1.025906
 C        -0.621918        -1.164797         0.136732
 C         0.068673         0.159672         0.284945
 O         1.229461         0.288667         0.543303
 C        -0.970479         1.323938        -0.153191
 C        -2.106940         1.168495         0.798209
 O        -1.472070         0.751154         2.008043
 H        -3.342342        -0.896994         3.410788
 H        -4.224131         0.634255         2.601674
 H        -4.489483        -0.994810         2.018737
 H        -1.481530        -1.971905         1.970720
 H        -2.566509        -2.207651         0.601366
 H         0.168605        -2.022143         0.301584
 H        -1.065499        -1.169290        -0.890475
 H        -0.508567         2.359167        -0.000636
 H        -1.330172         1.004786        -1.258225
 H        -2.915309         1.943175         0.866932
