19
Iteration:  1477
 C        -3.944237        -0.400066         1.531797
 C        -2.442949        -0.121874         1.656094
 C        -1.487531        -1.256743         1.645840
 C        -0.656566        -1.348920         0.295687
 C         0.083564         0.011342         0.016045
 O         1.125100        -0.028698        -0.636675
 C        -0.541961         1.392048         0.505467
 C        -1.892477         1.240982         1.190573
 O        -2.073562         1.096479         2.558834
 H        -4.419821        -0.952422         2.384496
 H        -4.515185         0.409084         1.331030
 H        -4.092375        -1.035743         0.622673
 H        -0.717206        -1.225439         2.374920
 H        -1.986135        -2.182048         1.846664
 H         0.020296        -2.279272         0.357799
 H        -1.264024        -1.611845        -0.585947
 H         0.138250         1.968951         1.318601
 H        -0.666409         2.036460        -0.397428
 H        -2.593529         1.874764         0.678572
