19
Iteration:  4946charge 0 multiplicity 1
 C        -3.791392        -0.583053         1.498374
 C        -2.396467        -0.123248         1.638798
 C        -1.255039        -1.202355         1.768649
 C        -0.493518        -1.349443         0.401861
 C         0.006670         0.080812        -0.008726
 O         0.696904         0.249617        -0.988430
 C        -0.397969         1.246377         0.862532
 C        -1.904353         1.262396         1.113840
 O        -2.253550         1.022874         2.492109
 H        -4.441756        -0.459817         2.325900
 H        -4.271994        -0.091817         0.606389
 H        -3.891723        -1.623901         1.232490
 H        -0.466756        -0.845809         2.504824
 H        -1.701967        -2.158106         2.040182
 H         0.273787        -2.102305         0.363493
 H        -1.220303        -1.640410        -0.380790
 H         0.110314         0.931637         1.762667
 H         0.038843         2.155804         0.404915
 H        -2.617170         1.795635         0.544527
