19
Iteration:  4163
 C        -3.978910        -0.389678         1.973181
 C        -2.512728        -0.162948         1.664090
 C        -1.760600        -1.463155         1.001953
 C        -0.234496        -1.204647         0.689200
 C         0.104148         0.153810         0.110290
 O         1.020815         0.352726        -0.642003
 C        -0.759645         1.404849         0.300208
 C        -2.056871         1.165366         1.148825
 O        -1.688442         0.687019         2.464605
 H        -4.231672        -1.455842         2.321868
 H        -4.343100         0.257328         2.758896
 H        -4.536724        -0.269809         1.004262
 H        -1.950858        -2.254884         1.692994
 H        -2.366545        -1.680406         0.083891
 H         0.317433        -1.270361         1.638879
 H         0.066621        -1.828764        -0.125264
 H        -0.138659         2.159547         0.933774
 H        -0.890696         1.976625        -0.570045
 H        -2.702995         1.971040         1.221399
