19
Iteration:   668
 C        -3.903080        -0.243810         2.124156
 C        -2.478212        -0.110294         1.677575
 C        -1.709620        -1.389741         1.255969
 C        -0.713579        -1.274947         0.037744
 C         0.119109         0.014700         0.080295
 O         1.322351         0.251023         0.187264
 C        -0.802022         1.210044        -0.009701
 C        -2.026656         1.235312         0.909348
 O        -1.663921         0.859329         2.366229
 H        -4.132673        -0.981460         2.918865
 H        -4.149522         0.655439         2.719142
 H        -4.517802        -0.505707         1.207312
 H        -1.220453        -1.793810         2.141657
 H        -2.471351        -2.127752         0.993910
 H        -0.084010        -2.171995        -0.123209
 H        -1.403707        -1.131592        -0.838455
 H        -0.179579         2.049159         0.105115
 H        -1.290195         1.204629        -0.997498
 H        -2.750471         2.029547         0.912255
