19
Iteration:  4458
 C        -3.902103        -0.488074         2.034804
 C        -2.459791        -0.145891         1.663028
 C        -1.611313        -1.384612         1.277188
 C        -0.643806        -1.236908         0.089351
 C         0.120189         0.102548         0.108140
 O         1.305017         0.295171        -0.161745
 C        -0.891107         1.227535         0.233854
 C        -2.144012         1.207823         1.034570
 O        -1.657053         0.984378         2.443056
 H        -3.739630        -1.308636         2.665287
 H        -4.611360         0.286273         2.384477
 H        -4.396104        -0.905374         1.123596
 H        -1.125186        -1.736444         2.170841
 H        -2.300781        -2.319607         1.080819
 H         0.114327        -2.083094        -0.192899
 H        -1.269568        -1.013805        -0.829495
 H        -0.284735         2.187259         0.580326
 H        -1.222308         1.474382        -0.799037
 H        -2.985199         1.852578         0.819736
