19
Iteration:  2811charge 0 multiplicity 1
 C        -3.847961        -0.259287         2.091363
 C        -2.407384        -0.141224         1.559697
 C        -1.722370        -1.469985         1.274211
 C        -0.698972        -1.254150         0.120136
 C         0.017184         0.143816         0.066576
 O         1.161076         0.419738         0.403378
 C        -0.978156         1.221875        -0.163200
 C        -1.982162         1.125664         0.955077
 O        -1.443934         0.755552         2.292419
 H        -3.877292        -1.051799         2.830909
 H        -4.070498         0.688610         2.491031
 H        -4.513481        -0.473790         1.196434
 H        -1.274262        -1.779146         2.264527
 H        -2.385344        -2.312658         0.993357
 H         0.130080        -1.942914         0.118343
 H        -1.234894        -1.417581        -0.819262
 H        -0.384086         2.222539        -0.144587
 H        -1.604865         1.133024        -1.079153
 H        -2.656813         2.017795         0.972573
