19
Iteration:  4145
 C        -3.911785        -0.430276         1.834797
 C        -2.455387        -0.185097         1.589894
 C        -1.680815        -1.307419         1.004275
 C        -0.267882        -1.084654         0.777492
 C         0.026847         0.212933        -0.004858
 O         0.985011         0.153305        -0.723840
 C        -0.817093         1.430435         0.427669
 C        -2.037892         1.155128         1.226971
 O        -1.720899         0.651091         2.588982
 H        -4.080653        -1.270514         2.448974
 H        -4.277107         0.511438         2.349283
 H        -4.398934        -0.615741         0.853684
 H        -1.901007        -2.319617         1.566955
 H        -2.182739        -1.390377         0.046262
 H         0.371182        -1.049690         1.706924
 H         0.099612        -1.931747         0.158622
 H        -0.029735         1.955603         0.947227
 H        -1.081938         2.097730        -0.464576
 H        -2.868875         1.927838         1.047481
