19
Iteration:  1177charge 0 multiplicity 1
 C        -4.020159        -0.357956         1.760581
 C        -2.590745        -0.066405         1.571157
 C        -1.825455        -1.211317         1.071796
 C        -0.308850        -1.137722         0.828428
 C         0.139812         0.088638         0.042798
 O         1.106117         0.143475        -0.717426
 C        -0.686729         1.312410         0.334078
 C        -1.905852         1.212543         1.220657
 O        -1.774358         0.607344         2.605558
 H        -4.277926        -0.914104         2.610786
 H        -4.640801         0.607727         1.987260
 H        -4.421042        -0.792250         0.865083
 H        -1.997887        -2.033850         1.736210
 H        -2.213080        -1.530472         0.102158
 H         0.197723        -1.041941         1.762966
 H         0.013182        -2.096571         0.300132
 H         0.075984         2.127707         0.606852
 H        -1.025657         1.712225        -0.705653
 H        -2.491359         2.141315         1.348801
