19
Iteration:  1387
 C        -3.772954        -0.350957         2.155795
 C        -2.460515        -0.048132         1.559083
 C        -1.693591        -1.385597         1.261386
 C        -0.817840        -1.238437         0.011017
 C         0.086068        -0.008461         0.113987
 O         1.297947         0.167557         0.279330
 C        -0.811222         1.256433         0.094248
 C        -2.077993         1.198948         0.869788
 O        -1.671804         0.952450         2.244249
 H        -3.648901        -1.050189         2.995920
 H        -4.181800         0.533508         2.606556
 H        -4.421637        -0.796924         1.382231
 H        -1.099344        -1.495802         2.152059
 H        -2.445948        -2.183712         1.201070
 H        -0.195005        -2.140134        -0.157619
 H        -1.416079        -1.181761        -0.941219
 H        -0.216209         2.185760         0.520630
 H        -0.875926         1.385637        -1.008693
 H        -2.781414         2.024960         0.883150
