19
Iteration:  3180
 C        -3.923399        -0.449024         1.268705
 C        -2.432932        -0.105718         1.474705
 C        -1.561280        -1.293480         1.334009
 C        -0.064633        -1.017712         1.069441
 C         0.085647         0.162366         0.097190
 O         0.349955        -0.023886        -1.104051
 C        -0.434138         1.447292         0.757326
 C        -1.861790         1.170392         1.248485
 O        -1.945239         0.726911         2.592216
 H        -4.059338        -1.450819         1.848400
 H        -4.456397         0.413500         1.678056
 H        -3.931289        -0.604814         0.144013
 H        -1.824597        -1.786493         2.293139
 H        -1.931131        -1.924556         0.432010
 H         0.279804        -0.692714         2.050887
 H         0.458826        -1.989134         0.772589
 H         0.163802         1.657241         1.587851
 H        -0.344995         2.300383         0.040173
 H        -2.401311         2.134949         1.107150
