19
Iteration:  2144
 C        -3.990241        -0.322485         1.981676
 C        -2.431583        -0.096182         1.707752
 C        -1.919049        -1.410057         1.017011
 C        -0.479101        -1.247443         0.498437
 C         0.151487         0.111833         0.241112
 O         1.265821         0.193533        -0.222655
 C        -0.864048         1.302668         0.109405
 C        -2.045979         1.191090         1.063358
 O        -1.544409         0.874666         2.381635
 H        -4.138872        -1.228894         2.644652
 H        -4.543685         0.620251         2.474839
 H        -4.526054        -0.487422         1.002542
 H        -1.975087        -2.180351         1.766374
 H        -2.680106        -1.514216         0.231297
 H         0.241976        -1.847207         1.052051
 H        -0.449733        -1.753302        -0.519955
 H        -0.364306         2.183190         0.197875
 H        -1.137033         1.113115        -1.006548
 H        -2.858551         1.939880         0.983429
