19
Iteration:  2584charge 0 multiplicity 1
 C        -3.801218        -0.567338         1.493658
 C        -2.427203        -0.098311         1.687251
 C        -1.331797        -1.280303         1.775353
 C        -0.850257        -1.266706         0.291106
 C         0.046868         0.112189         0.033872
 O         1.055850         0.170735        -0.725126
 C        -0.468388         1.268095         0.689402
 C        -1.906211         1.063897         1.046581
 O        -2.136141         1.111264         2.478855
 H        -4.100994        -1.521376         1.877694
 H        -4.521592         0.213885         1.862594
 H        -4.060306        -0.656146         0.426793
 H        -0.496387        -1.013449         2.410059
 H        -1.718458        -2.187432         2.105851
 H        -0.325989        -2.073296        -0.088476
 H        -1.666944        -0.934985        -0.368066
 H         0.046719         1.262093         1.638158
 H        -0.305358         2.267286         0.160723
 H        -2.569615         1.644559         0.485716
