19
Iteration:  1807
 C        -3.868364        -0.550216         1.525579
 C        -2.363402        -0.057225         1.649329
 C        -1.494428        -1.237881         1.728952
 C        -0.808926        -1.156294         0.346857
 C         0.113558         0.069880         0.065168
 O         1.067803        -0.106256        -0.703595
 C        -0.378773         1.347905         0.606291
 C        -1.857485         1.190157         1.107834
 O        -2.200282         1.105503         2.456998
 H        -3.979622        -1.311071         2.286676
 H        -4.711516         0.295966         1.685624
 H        -3.920501        -1.017002         0.557878
 H        -0.810992        -1.174783         2.612741
 H        -2.022506        -2.207251         1.868101
 H        -0.209905        -2.038909        -0.004817
 H        -1.497246        -1.103560        -0.478457
 H         0.239655         1.636199         1.471105
 H        -0.381119         2.123868        -0.179461
 H        -2.554657         1.819722         0.544454
