19
Iteration:  3805
 C        -3.978096        -0.401231         1.831261
 C        -2.515891        -0.218499         1.665427
 C        -1.672984        -1.343548         0.908960
 C        -0.159535        -1.091073         0.874352
 C         0.094019         0.122022         0.008328
 O         1.073361         0.318309        -0.729057
 C        -0.922803         1.336065         0.276288
 C        -2.034882         1.120310         1.302079
 O        -1.753145         0.658408         2.605225
 H        -4.342098        -1.330387         2.316143
 H        -4.311805         0.358684         2.448063
 H        -4.499408        -0.181534         0.854807
 H        -1.735046        -2.345274         1.303782
 H        -2.044622        -1.179751        -0.111612
 H         0.384054        -0.898000         1.850176
 H         0.290876        -2.004440         0.414146
 H        -0.356170         2.221485         0.674029
 H        -1.417605         1.629897        -0.597664
 H        -2.658832         2.090572         1.209358
