19
Iteration:   222
 C        -3.987063        -0.152009         1.898973
 C        -2.501069        -0.013385         1.551285
 C        -1.912125        -1.332627         0.942366
 C        -0.393433        -1.389783         0.778019
 C         0.106726        -0.084972         0.105868
 O         1.171613         0.086192        -0.476518
 C        -0.670953         1.232195         0.318610
 C        -1.912756         1.298264         1.140105
 O        -1.758279         0.896795         2.444919
 H        -4.127772        -0.901691         2.790153
 H        -4.355830         0.818907         2.312387
 H        -4.657357        -0.500223         1.076226
 H        -2.282652        -2.179768         1.465390
 H        -2.330927        -1.367296        -0.015872
 H         0.117412        -1.330611         1.823314
 H         0.041741        -2.224427         0.290129
 H         0.083887         2.057389         0.438653
 H        -1.130505         1.347200        -0.631442
 H        -2.567470         2.141429         0.914836
