19
Iteration:  1658
 C        -3.764804        -0.276374         0.932589
 C        -2.373829        -0.063323         1.543630
 C        -1.388636        -1.244137         1.790276
 C        -0.109610        -1.250933         0.890962
 C        -0.003590        -0.013519         0.092628
 O         0.025930         0.007577        -1.144239
 C        -0.133542         1.102355         1.065718
 C        -1.680187         1.189499         1.143746
 O        -2.294235         1.106309         2.494514
 H        -4.264401        -1.094044         1.403625
 H        -4.303679         0.625516         1.054101
 H        -3.640332        -0.403495        -0.160078
 H        -1.038855        -1.310016         2.837340
 H        -2.002246        -2.195404         1.733006
 H         0.778604        -1.350090         1.461870
 H        -0.294751        -1.975525         0.070415
 H         0.372017         0.901184         2.027028
 H         0.351032         1.986873         0.693672
 H        -2.118870         1.957920         0.523429
