19
Iteration:   747charge 0 multiplicity 1
 C        -3.627698        -0.293224         2.429540
 C        -2.404907        -0.067172         1.574482
 C        -1.992449        -1.354440         0.915052
 C        -0.726957        -1.342989         0.019528
 C         0.101133         0.126581         0.075855
 O         1.119214         0.326228         0.740060
 C        -0.924870         1.151683        -0.332596
 C        -1.899601         1.151296         0.912382
 O        -1.484452         0.880183         2.231446
 H        -3.127394        -0.731978         3.286004
 H        -4.392418         0.610517         2.420817
 H        -4.314626        -1.004197         2.003365
 H        -1.821950        -2.095692         1.696706
 H        -2.869790        -1.702193         0.265132
 H        -0.048810        -2.061904         0.372069
 H        -1.025067        -1.648813        -1.009580
 H        -0.677770         2.137658        -0.413767
 H        -1.436853         0.962138        -1.298225
 H        -2.570676         2.064679         0.814644
