19
Iteration:  2035
 C        -3.692806        -0.203631         2.408313
 C        -2.514503        -0.049332         1.432200
 C        -1.934374        -1.321232         0.739824
 C        -0.439133        -1.391258         0.382629
 C        -0.014627         0.018289         0.068544
 O         1.069526         0.374815         0.486517
 C        -0.984709         1.079973        -0.202749
 C        -1.915380         1.267197         0.998615
 O        -1.447436         0.799534         2.232711
 H        -3.414571        -0.824385         3.245570
 H        -3.984562         0.799825         2.897893
 H        -4.574555        -0.554230         1.946204
 H        -2.323369        -2.236886         1.189978
 H        -2.506395        -1.560920        -0.188141
 H         0.129292        -1.723241         1.258287
 H        -0.452318        -2.081996        -0.542917
 H        -0.377246         1.848158        -0.486297
 H        -1.725521         0.959634        -1.126718
 H        -2.614460         2.076288         1.169786
