19
Iteration:  3789
 C        -3.928474        -0.333881         1.868097
 C        -2.395685        -0.257975         1.611386
 C        -1.726970        -1.420219         0.992616
 C        -0.221572        -1.158379         0.727352
 C         0.110605         0.287868         0.128611
 O         1.069913         0.325835        -0.634662
 C        -0.915415         1.374392         0.223102
 C        -2.032117         1.144351         1.225140
 O        -1.757484         0.632354         2.612424
 H        -4.181312        -1.373511         2.056691
 H        -4.374278         0.295863         2.739225
 H        -4.514971        -0.153236         0.978110
 H        -2.015469        -2.247483         1.734821
 H        -2.319905        -1.546142         0.064158
 H         0.195907        -1.216536         1.725573
 H         0.311387        -1.848012         0.050453
 H        -0.392564         2.338408         0.210686
 H        -1.345341         1.304409        -0.859422
 H        -2.890246         1.765679         1.125388
