19
Iteration:  2129
 C        -3.835347        -0.230126         2.075805
 C        -2.448845        -0.124114         1.609490
 C        -1.891512        -1.360465         0.951576
 C        -0.473116        -1.309860         0.431387
 C         0.054195         0.104151         0.151565
 O         1.234679         0.247964        -0.056748
 C        -0.897490         1.194322         0.037278
 C        -1.983641         1.159361         1.070838
 O        -1.633819         0.857609         2.429495
 H        -3.960008        -0.869083         2.974339
 H        -4.260341         0.787970         2.306034
 H        -4.313822        -0.621624         1.162963
 H        -2.089665        -2.332988         1.454263
 H        -2.542082        -1.619973         0.095520
 H         0.206443        -1.638340         1.240651
 H        -0.302872        -1.814710        -0.499418
 H        -0.355286         2.210965         0.045908
 H        -1.416590         1.195492        -0.869636
 H        -2.708152         2.099897         0.988062
