19
Iteration:  1860charge 0 multiplicity 1
 C        -3.919159        -0.349855         1.831565
 C        -2.420571        -0.108064         1.578552
 C        -1.412538        -1.191564         1.453107
 C        -0.745061        -1.335068         0.133698
 C         0.051427        -0.027808        -0.005207
 O         1.228592         0.016831        -0.260981
 C        -0.599303         1.338396         0.463793
 C        -2.051332         1.195965         0.991128
 O        -2.003312         0.982597         2.432472
 H        -4.078226        -0.956776         2.706946
 H        -4.315982         0.724034         2.059068
 H        -4.438998        -0.756872         1.008372
 H        -0.631377        -0.736310         2.186275
 H        -1.791819        -2.286762         1.782225
 H        -0.096165        -2.248694        -0.009767
 H        -1.498791        -1.395726        -0.697027
 H        -0.078169         1.715606         1.304358
 H        -0.511269         2.036734        -0.401601
 H        -2.858655         1.929878         0.740065
