19
Iteration:  2780charge 0 multiplicity 1
 C        -3.894369        -0.366265         2.048389
 C        -2.471608        -0.105365         1.555547
 C        -1.674474        -1.421087         1.308595
 C        -0.599293        -1.237671         0.248608
 C         0.008790         0.134611         0.175379
 O         1.260457         0.253594         0.050703
 C        -0.890433         1.328073         0.079494
 C        -2.117650         1.218491         0.934469
 O        -1.568172         0.764819         2.266762
 H        -4.051758        -1.123675         2.744007
 H        -4.213315         0.546781         2.537993
 H        -4.580063        -0.474436         1.217900
 H        -1.145055        -1.689359         2.257202
 H        -2.348881        -2.177019         0.948089
 H         0.247835        -1.824627         0.333193
 H        -0.904081        -1.595240        -0.740963
 H        -0.293838         2.192560         0.338586
 H        -1.233305         1.436426        -1.016800
 H        -2.725466         2.089335         0.888383
