19
Iteration:  3157
 C        -3.949375        -0.289434         1.345497
 C        -2.393195        -0.092460         1.399842
 C        -1.459181        -1.376624         1.152526
 C        -0.003154        -0.988360         1.144538
 C         0.013017         0.090818         0.172427
 O         0.363991        -0.085581        -0.976560
 C        -0.538544         1.535612         0.590175
 C        -1.856576         1.301079         1.362574
 O        -1.967273         0.555680         2.604617
 H        -4.210785        -0.979186         2.267256
 H        -4.303123         0.700431         1.357966
 H        -3.994187        -0.796334         0.330153
 H        -1.631520        -2.174091         1.935640
 H        -1.578051        -1.773932         0.102507
 H         0.265879        -0.758805         2.207588
 H         0.592664        -1.850568         0.712388
 H         0.268971         2.050160         0.992429
 H        -0.747976         2.069794        -0.375126
 H        -2.647279         2.091566         1.183420
