19
Iteration:   432charge 0 multiplicity 1
 C        -3.745682        -0.428366         0.970260
 C        -2.406905        -0.037126         1.501895
 C        -1.496781        -1.244817         1.852561
 C        -0.321642        -1.368692         0.735606
 C        -0.077188        -0.017966         0.095065
 O         0.248248         0.078201        -1.062822
 C        -0.145191         1.256888         0.953583
 C        -1.669877         1.384381         1.238613
 O        -2.162709         0.968877         2.530640
 H        -4.220030        -1.125547         1.644631
 H        -4.561838         0.446381         0.734713
 H        -3.446533        -0.927881         0.038813
 H        -1.159273        -1.165201         2.845215
 H        -2.129642        -2.078072         1.815087
 H         0.634279        -1.555581         1.203530
 H        -0.595666        -2.221253        -0.012469
 H         0.592855         1.312566         1.807163
 H         0.232092         2.028925         0.191203
 H        -2.249939         2.288695         0.844940
