19
Iteration:  2527
 C        -3.916888        -0.539661         1.480091
 C        -2.452397        -0.095240         1.514891
 C        -1.392104        -1.126222         1.702236
 C        -0.629033        -1.211657         0.417431
 C         0.068086         0.084160         0.030785
 O         0.928764         0.045820        -0.901630
 C        -0.397439         1.373936         0.815113
 C        -1.907824         1.263404         1.186435
 O        -2.125333         0.846759         2.492001
 H        -4.265377        -0.538014         2.556034
 H        -4.510456         0.157012         1.006681
 H        -4.101703        -1.540058         0.876476
 H        -0.735529        -0.946228         2.542946
 H        -1.911369        -2.071620         1.915572
 H         0.234867        -1.939078         0.482666
 H        -1.153893        -1.674637        -0.460273
 H         0.112672         1.461969         1.733651
 H        -0.145476         2.269018         0.237862
 H        -2.714912         1.841199         0.666248
