19
Iteration:  4612charge 0 multiplicity 1
 C        -3.896433        -0.565288         1.758844
 C        -2.424354        -0.148537         1.590467
 C        -1.411935        -1.278819         1.676423
 C        -0.597559        -1.329001         0.295244
 C         0.005985         0.065474        -0.033199
 O         1.083251         0.296255        -0.584527
 C        -0.585819         1.272875         0.444643
 C        -1.942225         1.207859         1.068776
 O        -2.082225         1.004580         2.462556
 H        -4.286248        -1.357480         1.165803
 H        -3.962125        -0.818487         2.855407
 H        -4.397375         0.337636         1.459634
 H        -0.845815        -1.048989         2.565750
 H        -1.926623        -2.327283         1.762807
 H         0.216988        -2.122795         0.130318
 H        -1.351453        -1.614617        -0.462671
 H         0.038852         1.739847         1.281986
 H        -0.557588         2.027650        -0.264763
 H        -2.578266         1.969596         0.617851
