19
Iteration:  3839
 C        -3.944322        -0.499276         1.827902
 C        -2.514483        -0.200295         1.476525
 C        -1.699190        -1.305465         0.909071
 C        -0.215066        -0.962873         1.044469
 C         0.126135         0.247786         0.077929
 O         0.872644         0.151742        -0.918357
 C        -0.669795         1.492657         0.431662
 C        -1.941229         1.215512         1.272026
 O        -1.830373         0.491085         2.570128
 H        -3.904439        -1.185666         2.694859
 H        -4.538774         0.354463         2.068502
 H        -4.461298        -1.211280         1.096858
 H        -1.940177        -2.201759         1.481024
 H        -2.138411        -1.611037        -0.072875
 H        -0.045891        -0.654378         2.115273
 H         0.355575        -1.842715         0.796859
 H        -0.073259         2.312114         0.897838
 H        -1.009057         1.942623        -0.505061
 H        -2.481790         2.229805         1.289717
