19
Iteration:  2775charge 0 multiplicity 1
 C        -3.851321        -0.346275         2.046311
 C        -2.487243        -0.113229         1.542853
 C        -1.674027        -1.433780         1.283542
 C        -0.562042        -1.195486         0.257580
 C         0.017470         0.138547         0.138908
 O         1.264994         0.210291         0.008724
 C        -0.881366         1.305089         0.111890
 C        -2.109733         1.215242         0.933451
 O        -1.627393         0.799226         2.323942
 H        -4.069114        -1.209906         2.788767
 H        -4.241208         0.572535         2.547662
 H        -4.597101        -0.530114         1.214445
 H        -1.198750        -1.756879         2.205004
 H        -2.406664        -2.229230         0.957335
 H         0.354744        -1.865379         0.547557
 H        -0.912831        -1.423713        -0.776867
 H        -0.328534         2.308365         0.327330
 H        -1.163502         1.381853        -0.914134
 H        -2.898628         2.044222         0.797544
