19
Iteration:  3431charge 0 multiplicity 1
 C        -3.967860        -0.509552         1.639591
 C        -2.431537        -0.186743         1.688047
 C        -1.401462        -1.281505         1.540378
 C        -0.465982        -1.199094         0.294063
 C         0.149212         0.141950         0.045793
 O         1.094358         0.233789        -0.749818
 C        -0.671082         1.305163         0.557784
 C        -2.037913         1.206786         1.162959
 O        -2.086912         0.874706         2.551587
 H        -4.272312        -0.768750         2.642451
 H        -4.563797         0.375942         1.359261
 H        -4.053724        -1.352817         1.002120
 H        -0.766334        -1.288420         2.413596
 H        -1.780043        -2.293418         1.598806
 H         0.227141        -2.023203         0.412406
 H        -1.227694        -1.577975        -0.397553
 H        -0.091784         1.966601         1.343018
 H        -0.720246         1.920949        -0.344497
 H        -2.809212         1.871152         0.774722
