19
Iteration:  2762
 C        -3.862704        -0.311745         2.047525
 C        -2.430075        -0.158156         1.563159
 C        -1.712996        -1.390938         1.207232
 C        -0.514379        -1.226003         0.291727
 C         0.097753         0.147190         0.142858
 O         1.317420         0.163194        -0.120272
 C        -0.862924         1.350260         0.093657
 C        -2.057825         1.104515         1.036873
 O        -1.849826         0.911902         2.411207
 H        -3.708055        -1.142228         2.801305
 H        -4.258414         0.643074         2.600228
 H        -4.493598        -0.642563         1.229578
 H        -1.405373        -1.759264         2.188554
 H        -2.367472        -2.166480         0.781511
 H         0.319261        -2.006336         0.426762
 H        -0.828876        -1.482578        -0.769145
 H        -0.332054         2.243205         0.345031
 H        -1.213719         1.427609        -0.940755
 H        -2.918833         1.791541         0.877781
