19
Iteration:  4306charge 0 multiplicity 1
 C        -3.696088        -0.324203         2.419943
 C        -2.457958        -0.198418         1.620953
 C        -2.112218        -1.414695         0.820585
 C        -0.554462        -1.244042         0.422489
 C         0.082009         0.311586         0.207925
 O         1.287715         0.497430         0.148290
 C        -1.012613         1.274753        -0.109506
 C        -2.023823         1.088278         0.927658
 O        -1.450614         0.561612         2.199260
 H        -3.560957        -0.365338         3.474834
 H        -4.448894         0.524435         2.269768
 H        -4.284901        -1.258679         2.188180
 H        -2.348598        -2.357205         1.196514
 H        -2.657356        -1.269487        -0.165605
 H        -0.003999        -1.603150         1.351218
 H        -0.180200        -1.574560        -0.524512
 H        -0.583287         2.346593        -0.294902
 H        -1.306710         1.030258        -1.138642
 H        -2.549773         1.948473         1.155002
