19
Iteration:  2422
 C        -3.969531        -0.423889         1.417074
 C        -2.487238        -0.053850         1.514096
 C        -1.531887        -1.308686         1.546841
 C        -0.238434        -1.283875         0.752721
 C         0.150014         0.117495         0.159954
 O         0.556867         0.090623        -1.002431
 C        -0.322307         1.404969         0.734545
 C        -1.847249         1.178509         1.118657
 O        -2.093918         0.887633         2.522637
 H        -3.974213        -1.493932         1.553068
 H        -4.639869         0.109659         2.219146
 H        -4.260718        -0.206472         0.417990
 H        -1.299283        -1.353016         2.632664
 H        -2.148708        -2.158116         1.256400
 H         0.658451        -1.817925         1.247439
 H        -0.280650        -1.897138        -0.167351
 H         0.255520         1.750025         1.610543
 H        -0.152254         2.138981        -0.104545
 H        -2.484529         1.994199         0.851534
