19
Iteration:  3813
 C        -4.027991        -0.419861         1.818572
 C        -2.503423        -0.236176         1.626856
 C        -1.656531        -1.256940         0.903758
 C        -0.120089        -1.037011         0.926989
 C         0.078550         0.146116        -0.052607
 O         1.040103         0.288795        -0.764820
 C        -0.880222         1.238704         0.336105
 C        -2.057331         1.195288         1.311511
 O        -1.742475         0.605810         2.600496
 H        -4.260090        -1.331516         2.372490
 H        -4.455163         0.418786         2.402862
 H        -4.593872        -0.520318         0.939886
 H        -1.975909        -2.253074         1.337956
 H        -2.062960        -1.125347        -0.055203
 H         0.200989        -0.679688         1.928270
 H         0.498410        -1.937231         0.595687
 H        -0.118073         1.986511         0.752864
 H        -1.208547         1.730724        -0.584132
 H        -2.632564         2.111819         1.259803
