19
Iteration:  2892
 C        -3.588412        -0.408546         2.392040
 C        -2.491675        -0.155839         1.485042
 C        -1.898289        -1.446392         1.087837
 C        -0.753364        -1.194952         0.122535
 C         0.003551         0.238753         0.245521
 O         1.217822         0.286827         0.614613
 C        -0.879434         1.335028        -0.219226
 C        -2.073558         1.136887         0.787766
 O        -1.496113         0.798419         2.047800
 H        -3.181655        -0.830982         3.366805
 H        -4.099727         0.548958         2.848566
 H        -4.244957        -1.104842         1.916121
 H        -1.634671        -2.059873         2.102213
 H        -2.707572        -1.978146         0.553575
 H         0.128093        -1.921537         0.352224
 H        -0.945777        -1.383746        -0.959415
 H        -0.495191         2.335700        -0.222462
 H        -1.269985         1.275874        -1.427979
 H        -2.761345         1.984836         0.852408
