19
Iteration:  1235charge 0 multiplicity 1
 C        -3.828649        -0.177956         2.217376
 C        -2.512107        -0.085808         1.606743
 C        -1.990107        -1.289382         0.691863
 C        -0.424525        -1.305385         0.712279
 C         0.124813         0.086729         0.254464
 O         1.263160         0.367985        -0.145758
 C        -0.940722         1.226122         0.039550
 C        -2.104375         1.164035         1.026145
 O        -1.513237         0.555694         2.283591
 H        -4.020248        -1.221288         2.611473
 H        -3.989046         0.635138         2.941611
 H        -4.626334        -0.015116         1.442159
 H        -2.472629        -2.135314         1.099993
 H        -2.372248        -1.204357        -0.328097
 H         0.008402        -1.538984         1.704123
 H        -0.089697        -2.109409         0.025680
 H        -0.305605         2.177413         0.331815
 H        -1.251096         1.367620        -0.982705
 H        -2.607811         2.123643         1.154268
