19
Iteration:  4515
 C        -3.964870        -0.467082         1.848985
 C        -2.437231        -0.215128         1.622075
 C        -1.300915        -1.232599         1.481247
 C        -0.671045        -1.204061         0.133191
 C        -0.014597         0.142429        -0.026163
 O         1.209741         0.094023        -0.250818
 C        -0.844094         1.395913         0.296430
 C        -2.080956         1.133391         1.135599
 O        -1.831921         0.913043         2.431098
 H        -4.227606        -1.492686         1.887106
 H        -4.180138        -0.022640         2.844586
 H        -4.313121        -0.015757         0.941145
 H        -0.627725        -1.067869         2.311516
 H        -1.773048        -2.266548         1.570954
 H         0.224901        -1.882748        -0.024044
 H        -1.345774        -1.596682        -0.661681
 H        -0.099648         1.982189         0.933525
 H        -0.961602         2.035325        -0.642101
 H        -2.829181         1.863552         0.845409
