19
Iteration:  3394
 C        -3.887851        -0.593970         1.606649
 C        -2.401829        -0.133848         1.640687
 C        -1.293333        -1.283131         1.629098
 C        -0.626046        -1.268542         0.292046
 C         0.034661         0.128022        -0.056066
 O         0.999999         0.271422        -0.826584
 C        -0.479237         1.293477         0.819682
 C        -1.938223         1.198208         1.128587
 O        -2.245424         0.967783         2.473848
 H        -4.203911        -0.382559         2.669083
 H        -4.554425        -0.138295         0.921440
 H        -4.115633        -1.680850         1.476078
 H        -0.632276        -0.874352         2.428203
 H        -1.734499        -2.271778         1.849620
 H         0.299088        -1.859507         0.224342
 H        -1.217292        -1.553790        -0.530134
 H         0.205135         1.107113         1.674861
 H        -0.160448         2.299832         0.430691
 H        -2.727316         1.739414         0.538929
