19
Iteration:  3307
 C        -3.753837        -0.542604         1.151976
 C        -2.398560        -0.142397         1.644360
 C        -1.220139        -1.196739         1.743214
 C        -0.418524        -1.318194         0.461831
 C         0.049335         0.060001         0.005712
 O         0.648303         0.112130        -1.025123
 C        -0.466270         1.304749         0.867966
 C        -1.997993         1.255059         1.280788
 O        -2.268231         1.024155         2.653965
 H        -4.131811        -1.437721         1.711711
 H        -4.342781         0.325739         1.361010
 H        -3.718905        -0.717489         0.051101
 H        -0.572299        -0.979140         2.684264
 H        -1.694304        -2.154536         2.036534
 H         0.572918        -1.870121         0.465845
 H        -0.967687        -1.841447        -0.328644
 H         0.191555         1.330180         1.875334
 H        -0.295741         2.326885         0.371423
 H        -2.535955         2.087347         0.612997
