19
Iteration:   211
 C        -3.933378        -0.165183         2.000633
 C        -2.527234        -0.015560         1.547171
 C        -1.934859        -1.326269         0.960271
 C        -0.436086        -1.362823         0.640213
 C         0.146282        -0.010364         0.143732
 O         1.279612         0.031608        -0.392299
 C        -0.692683         1.200472         0.238017
 C        -1.986280         1.300257         1.071531
 O        -1.784747         0.923689         2.493701
 H        -3.999585        -0.882013         2.945160
 H        -4.356633         0.838383         2.239373
 H        -4.575391        -0.612989         1.194088
 H        -2.283275        -2.197693         1.448671
 H        -2.436460        -1.345091         0.030606
 H         0.122624        -1.615480         1.649858
 H        -0.238506        -2.120653        -0.067099
 H        -0.043869         2.115496         0.400095
 H        -0.844568         1.307836        -0.807733
 H        -2.733057         2.063772         0.912278
