19
Iteration:  1015
 C        -3.803315        -0.221834         0.983276
 C        -2.351220        -0.093123         1.372677
 C        -1.457362        -1.358365         1.456925
 C        -0.035261        -1.030468         1.151574
 C        -0.045620         0.076394         0.083890
 O        -0.073378         0.001769        -1.148812
 C        -0.234538         1.375917         0.848460
 C        -1.697366         1.229216         1.416327
 O        -2.020762         0.594646         2.585666
 H        -4.224303        -1.020876         1.586384
 H        -4.430945         0.707394         1.345759
 H        -3.910028        -0.339451        -0.116396
 H        -1.624514        -1.686812         2.566480
 H        -1.798935        -2.081154         0.622843
 H         0.451066        -0.540428         1.996452
 H         0.631808        -1.872973         0.757386
 H         0.421108         1.447173         1.740606
 H        -0.122927         2.210855         0.233999
 H        -2.286910         2.167982         1.281357
