19
Iteration:   803charge 0 multiplicity 1
 C        -3.719833        -0.177955         2.331826
 C        -2.431786        -0.126476         1.469900
 C        -2.068974        -1.435394         0.854964
 C        -0.569970        -1.367555         0.432401
 C         0.024158         0.133953         0.202152
 O         1.219051         0.386872         0.339805
 C        -0.949290         1.311685        -0.143278
 C        -2.035898         1.211312         0.958977
 O        -1.420396         0.640483         2.157930
 H        -3.575894        -0.926847         3.123742
 H        -3.664381         0.797591         2.897278
 H        -4.607145        -0.457500         1.785322
 H        -2.192726        -2.290516         1.516589
 H        -2.754553        -1.617515        -0.024293
 H         0.198139        -1.769379         1.049072
 H        -0.486672        -1.883737        -0.520470
 H        -0.458893         2.197950        -0.159324
 H        -1.355545         1.097606        -1.154140
 H        -2.697470         2.105665         1.034350
