19
Iteration:  4167charge 0 multiplicity 1
 C        -3.987110        -0.409217         1.993487
 C        -2.541518        -0.161592         1.634843
 C        -1.769318        -1.475973         0.994002
 C        -0.267040        -1.218019         0.678420
 C         0.125985         0.155207         0.111550
 O         1.044217         0.392040        -0.632577
 C        -0.740838         1.391389         0.340585
 C        -2.074615         1.174268         1.123143
 O        -1.667342         0.686108         2.468736
 H        -4.220626        -1.380102         2.298570
 H        -4.195683         0.309703         2.862230
 H        -4.588484        -0.195002         1.078755
 H        -1.950379        -2.300990         1.819411
 H        -2.394191        -1.728087         0.165408
 H         0.333593        -1.295456         1.625165
 H         0.089962        -1.916174        -0.121097
 H        -0.079505         2.143498         0.743290
 H        -1.024754         1.844611        -0.693221
 H        -2.793961         2.079290         1.106564
