19
Iteration:   711charge 0 multiplicity 1
 C        -3.678793        -0.145380         2.230383
 C        -2.382616        -0.089859         1.490869
 C        -1.739178        -1.441624         1.095959
 C        -0.645591        -1.316371         0.034001
 C        -0.039347         0.111117         0.195933
 O         1.116844         0.175091         0.568462
 C        -1.025735         1.315895        -0.112255
 C        -2.079382         1.244644         0.919299
 O        -1.433401         0.736201         2.109235
 H        -3.655139        -0.366955         3.317355
 H        -4.085513         0.882466         2.406237
 H        -4.384517        -0.924803         1.789410
 H        -1.379841        -1.789318         2.066132
 H        -2.508103        -2.122919         0.835897
 H         0.073965        -2.178911         0.205848
 H        -1.078042        -1.429341        -1.047502
 H        -0.566751         2.338382         0.052527
 H        -1.376018         1.103617        -1.131828
 H        -2.724293         2.047992         1.209303
