19
Iteration:  4671charge 0 multiplicity 1
 C        -3.936158        -0.599351         1.623817
 C        -2.484627        -0.107053         1.679555
 C        -1.374825        -1.172346         1.771736
 C        -0.558015        -1.239750         0.387918
 C         0.079420         0.078519        -0.052624
 O         1.048868         0.118627        -0.820755
 C        -0.468738         1.391868         0.525223
 C        -1.944427         1.200825         1.062970
 O        -2.183783         0.921909         2.519937
 H        -4.426849        -0.683214         0.608983
 H        -4.008219        -1.610644         1.961461
 H        -4.559556        -0.109274         2.375977
 H        -0.769734        -0.813056         2.698081
 H        -1.720746        -2.130676         2.103674
 H         0.251216        -1.912493         0.510732
 H        -1.352578        -1.552231        -0.366020
 H         0.119651         1.648133         1.362191
 H        -0.348170         2.198140        -0.341118
 H        -2.642623         1.971982         0.684890
