19
Iteration:   975
 C        -3.857367        -0.342684         1.282618
 C        -2.395833        -0.118403         1.532277
 C        -1.576775        -1.289572         1.222635
 C        -0.045057        -1.114551         0.975205
 C         0.035352         0.074339         0.163895
 O         0.244840         0.037530        -1.039626
 C        -0.363668         1.313757         0.800185
 C        -1.757437         1.226750         1.253737
 O        -2.018912         0.810351         2.651113
 H        -4.275195        -0.919387         2.109196
 H        -4.351138         0.659224         1.133903
 H        -4.029380        -0.782448         0.321757
 H        -1.769784        -2.250548         1.772855
 H        -1.752492        -1.494632         0.145010
 H         0.672044        -1.116511         1.797623
 H         0.047484        -2.009183         0.257308
 H         0.274788         1.542050         1.757987
 H        -0.329443         2.066966        -0.030730
 H        -2.456987         2.022629         0.961936
