19
Iteration:  3034charge 0 multiplicity 1
 C        -4.017566        -0.249593         1.898391
 C        -2.454912        -0.187208         1.586446
 C        -1.740386        -1.409055         1.202781
 C        -0.345189        -1.275903         0.477435
 C         0.158233         0.171291         0.035063
 O         1.250892         0.227153        -0.502767
 C        -0.760517         1.275099         0.384614
 C        -2.124751         1.090960         1.087501
 O        -1.879720         0.887471         2.478679
 H        -4.194821        -1.158796         2.549834
 H        -4.068906         0.533488         2.657934
 H        -4.492244        -0.175696         0.944414
 H        -1.555001        -2.024570         2.159957
 H        -2.397195        -1.976097         0.555756
 H         0.519676        -1.441828         1.225286
 H        -0.151163        -1.933421        -0.353480
 H        -0.200498         1.889815         1.009051
 H        -0.925168         1.954625        -0.419674
 H        -2.903152         1.797064         0.766142
