19
Iteration:  2984charge 0 multiplicity 1
 C        -3.966999        -0.349243         1.856887
 C        -2.509336        -0.095215         1.548921
 C        -1.779015        -1.311738         1.226848
 C        -0.522894        -1.221824         0.378755
 C         0.084812         0.129467         0.160395
 O         1.277482         0.284228        -0.121937
 C        -0.973001         1.231616         0.094547
 C        -2.029380         1.233515         1.153165
 O        -1.511551         0.726021         2.395810
 H        -3.931998        -1.310528         2.416836
 H        -4.357255         0.404632         2.496560
 H        -4.315965        -0.459741         0.786616
 H        -1.453386        -1.725102         2.175217
 H        -2.399991        -2.195555         0.859404
 H         0.279934        -1.794084         0.811042
 H        -0.891530        -1.666607        -0.613653
 H        -0.431395         2.289545        -0.029471
 H        -1.627518         1.021518        -0.868019
 H        -2.611279         2.162282         1.342390
