19
Iteration:  4747charge 0 multiplicity 1
 C        -3.793066        -0.619421         1.416605
 C        -2.434548        -0.133777         1.672329
 C        -1.334062        -1.183116         1.874800
 C        -0.554068        -1.228315         0.489840
 C         0.006445         0.088441        -0.031169
 O         0.774029         0.141708        -0.950463
 C        -0.371304         1.331755         0.669380
 C        -1.810750         1.173829         1.177048
 O        -2.253969         0.999596         2.500816
 H        -3.912253        -1.056442         0.387678
 H        -4.068662        -1.455422         1.958602
 H        -4.499567         0.213375         1.459964
 H        -0.706534        -0.935016         2.804487
 H        -1.691185        -2.134485         2.256657
 H         0.188039        -1.973785         0.336092
 H        -1.303379        -1.351891        -0.344838
 H         0.284020         1.593222         1.466172
 H        -0.495509         2.217904        -0.099339
 H        -2.494846         1.759113         0.515623
