19
Iteration:  1998
 C        -3.766008        -0.256198         2.358135
 C        -2.415447        -0.077795         1.568545
 C        -1.976116        -1.355024         0.966923
 C        -0.601377        -1.259776         0.291673
 C         0.048804         0.101920         0.227049
 O         1.237609         0.305480         0.432969
 C        -0.996904         1.136372        -0.204580
 C        -2.048824         1.189226         0.883527
 O        -1.403836         0.807444         2.146124
 H        -3.943561        -1.315714         2.775189
 H        -3.930119         0.576514         3.104336
 H        -4.530139        -0.129871         1.488398
 H        -1.917363        -2.130528         1.753187
 H        -2.676563        -1.581902         0.160638
 H         0.165082        -1.985720         0.631403
 H        -0.710395        -1.578716        -0.744925
 H        -0.464678         2.167916        -0.377674
 H        -1.273300         0.658577        -1.166037
 H        -2.820572         2.058678         0.818924
