19
Iteration:  3449charge 0 multiplicity 1
 C        -3.902114        -0.525772         1.633464
 C        -2.392771        -0.142235         1.638545
 C        -1.439637        -1.357748         1.524016
 C        -0.499121        -1.201309         0.352779
 C         0.075158         0.151306         0.027386
 O         1.107803         0.155742        -0.631545
 C        -0.713712         1.504603         0.401225
 C        -2.039051         1.116104         1.181545
 O        -2.037005         0.880773         2.610985
 H        -4.206820        -1.164241         2.553790
 H        -4.421602         0.383388         1.847527
 H        -4.158868        -1.003569         0.633848
 H        -0.954794        -1.522559         2.541254
 H        -1.993913        -2.308149         1.524030
 H         0.410738        -1.809828         0.264760
 H        -0.847428        -1.364147        -0.664579
 H         0.057874         2.049247         0.903918
 H        -1.031551         2.100599        -0.505801
 H        -2.908852         1.802235         0.906972
