19
Iteration:  3929charge 0 multiplicity 1
 C        -3.862123        -0.409922         1.383850
 C        -2.377589        -0.190911         1.487134
 C        -1.468202        -1.363551         1.397980
 C        -0.035039        -1.002719         0.864111
 C         0.021616         0.229304        -0.057260
 O         0.425837         0.046971        -1.152620
 C        -0.430354         1.517272         0.770180
 C        -1.874788         1.216610         1.412754
 O        -2.132859         0.607556         2.651770
 H        -4.224000        -1.253219         2.009525
 H        -4.573978         0.535651         1.524051
 H        -4.077976        -0.847894         0.357385
 H        -1.490928        -1.882078         2.342281
 H        -1.882472        -2.066277         0.534208
 H         0.637001        -0.807481         1.697344
 H         0.291544        -1.924309         0.357546
 H         0.209512         1.727846         1.585023
 H        -0.458060         2.347680        -0.058151
 H        -2.682229         2.020756         1.324807
