19
Iteration:  2312charge 0 multiplicity 1
 C        -3.954845        -0.258091         1.510766
 C        -2.407906        -0.144653         1.455755
 C        -1.632000        -1.356707         0.979730
 C        -0.111756        -1.090608         1.175327
 C         0.059518         0.079051         0.223685
 O         0.456585        -0.029860        -0.949592
 C        -0.511518         1.434656         0.633323
 C        -1.865685         1.212564         1.218485
 O        -1.787809         0.728284         2.540517
 H        -4.384532        -0.534386         2.486111
 H        -4.519480         0.656127         1.302393
 H        -4.360841        -0.886734         0.690341
 H        -1.934238        -2.341069         1.392046
 H        -1.827359        -1.522832        -0.090119
 H         0.104360        -0.791592         2.257811
 H         0.580270        -1.923714         0.916835
 H         0.068798         1.908023         1.291626
 H        -0.656215         2.042709        -0.295775
 H        -2.548345         1.975720         1.000924
