19
Iteration:  2559
 C        -3.784498        -0.560915         1.494716
 C        -2.407293        -0.035645         1.761264
 C        -1.307288        -1.203488         1.636874
 C        -0.704525        -1.294146         0.204405
 C         0.051496        -0.014260        -0.062434
 O         1.041696         0.137347        -0.778815
 C        -0.432982         1.187106         0.739339
 C        -1.920562         1.229621         1.205910
 O        -2.345109         1.159753         2.580278
 H        -4.232538        -1.229425         2.288342
 H        -4.449120         0.227085         1.365929
 H        -3.901828        -1.226766         0.552639
 H        -0.453388        -1.227555         2.328315
 H        -1.882578        -2.144050         1.823984
 H         0.163258        -1.999380         0.154835
 H        -1.486993        -1.453751        -0.572621
 H         0.110047         1.196205         1.601732
 H        -0.137178         2.007245         0.124059
 H        -2.678045         1.697268         0.528810
