19
Iteration:  4474charge 0 multiplicity 1
 C        -3.842060        -0.553288         2.000173
 C        -2.440029        -0.124585         1.661428
 C        -1.565069        -1.309752         1.330366
 C        -0.706498        -1.194478         0.063251
 C         0.139210         0.082525         0.122578
 O         1.281276         0.274676        -0.219284
 C        -0.783086         1.246810         0.219330
 C        -2.034737         1.158842         1.083993
 O        -1.866920         0.971779         2.448082
 H        -4.120516        -1.582261         2.446695
 H        -4.209116         0.164240         2.760656
 H        -4.516473        -0.543185         1.131185
 H        -0.876688        -1.525400         2.191653
 H        -2.208041        -2.103034         1.159167
 H        -0.184713        -2.112657         0.004049
 H        -1.388202        -0.976803        -0.753913
 H        -0.255734         2.146430         0.371108
 H        -1.170328         1.214907        -0.867443
 H        -2.753525         1.994750         0.915214
