19
Iteration:  4680charge 0 multiplicity 1
 C        -3.918570        -0.636355         1.623567
 C        -2.462288        -0.090015         1.590950
 C        -1.388351        -1.111554         1.826299
 C        -0.595209        -1.303973         0.387169
 C         0.053205         0.048395        -0.058885
 O         1.001678         0.179600        -0.804315
 C        -0.489948         1.358765         0.574622
 C        -1.866524         1.188710         1.030138
 O        -2.191276         0.927406         2.554764
 H        -4.349421        -0.458405         0.599864
 H        -3.938586        -1.662816         1.810782
 H        -4.496200         0.028797         2.198285
 H        -0.598203        -0.725593         2.559927
 H        -1.824334        -2.035539         2.253009
 H         0.233882        -1.953280         0.401786
 H        -1.056921        -1.855708        -0.461330
 H         0.286179         1.701246         1.223257
 H        -0.518996         2.084677        -0.336174
 H        -2.561598         2.004758         0.830418
