19
Iteration:  2338charge 0 multiplicity 1
 C        -3.859897        -0.335449         1.408973
 C        -2.372859        -0.021398         1.420689
 C        -1.620973        -1.332645         1.265961
 C        -0.128436        -1.132072         0.979582
 C         0.062982         0.110314         0.109504
 O         0.499901        -0.085947        -0.993867
 C        -0.450862         1.477384         0.634030
 C        -1.843387         1.330550         1.275932
 O        -2.025592         0.648823         2.601434
 H        -4.134626        -0.915268         2.297394
 H        -4.609468         0.582755         1.520991
 H        -4.212939        -0.810095         0.504997
 H        -1.793330        -1.985535         2.196193
 H        -2.210371        -2.005501         0.533724
 H         0.306535        -0.998347         1.999235
 H         0.424150        -1.918116         0.451315
 H         0.362463         1.724410         1.460021
 H        -0.476060         2.172778        -0.165552
 H        -2.558532         2.259620         1.109936
