19
Iteration:   839charge 0 multiplicity 1
 C        -3.983759        -0.162232         2.156303
 C        -2.567032        -0.121597         1.569627
 C        -1.949066        -1.310339         0.802592
 C        -0.440560        -1.217942         0.593177
 C         0.105985         0.157122         0.042629
 O         1.321903         0.333656        -0.031023
 C        -1.013117         1.156193        -0.024743
 C        -1.939438         1.195313         1.170012
 O        -1.433752         0.563112         2.335069
 H        -4.056153        -1.005149         2.839221
 H        -4.132159         0.704557         2.660797
 H        -4.873996        -0.131369         1.515821
 H        -2.175504        -2.170509         1.519872
 H        -2.520345        -1.547862        -0.137969
 H         0.082748        -1.353799         1.586060
 H        -0.190104        -2.042729         0.036867
 H        -0.609336         2.146465        -0.250785
 H        -1.539592         0.922645        -0.891295
 H        -2.579537         2.052896         1.329205
