19
Iteration:  2992
 C        -3.960922        -0.359517         1.864714
 C        -2.559202        -0.082618         1.477139
 C        -1.786351        -1.392929         1.295816
 C        -0.517040        -1.212949         0.409805
 C         0.110761         0.131089         0.158105
 O         1.288883         0.281010        -0.202280
 C        -0.966505         1.288627         0.109234
 C        -1.980035         1.241668         1.191403
 O        -1.554104         0.733242         2.413106
 H        -4.145066        -1.397477         2.338613
 H        -4.425585         0.344266         2.484703
 H        -4.566058        -0.348927         0.925161
 H        -1.374755        -1.705823         2.322393
 H        -2.438475        -2.144156         0.767714
 H         0.309081        -1.929675         0.763689
 H        -0.632628        -1.727870        -0.552196
 H        -0.454861         2.272971         0.030214
 H        -1.306517         1.196944        -0.971529
 H        -2.646186         2.140799         1.235815
