19
Iteration:  3420
 C        -3.979666        -0.546288         1.642262
 C        -2.470694        -0.144373         1.622380
 C        -1.369670        -1.259921         1.625351
 C        -0.557700        -1.258249         0.313012
 C         0.130384         0.070363        -0.026079
 O         1.081525         0.343814        -0.767131
 C        -0.576014         1.281748         0.644045
 C        -2.000095         1.129468         1.127947
 O        -2.103603         0.903132         2.549713
 H        -4.240053        -0.588654         2.680880
 H        -4.626439         0.218579         1.167317
 H        -4.279250        -1.480611         1.209163
 H        -0.752070        -1.035939         2.484740
 H        -1.870550        -2.213300         1.724988
 H         0.298312        -1.926737         0.317741
 H        -1.009749        -1.457252        -0.678431
 H         0.227073         1.697049         1.373907
 H        -0.622109         2.032456        -0.149920
 H        -2.752284         1.820708         0.736603
