19
Iteration:  1530
 C        -3.975567        -0.431262         1.376066
 C        -2.475309        -0.058023         1.508208
 C        -1.414038        -1.158823         1.824495
 C        -0.547304        -1.380416         0.483380
 C         0.099860        -0.037446         0.007171
 O         0.773279         0.148456        -0.986875
 C        -0.260186         1.140286         0.964662
 C        -1.789563         1.169505         1.083554
 O        -2.210444         1.174558         2.469743
 H        -4.256350        -1.021178         2.358250
 H        -4.682823         0.297213         1.381655
 H        -4.181918        -1.254482         0.571305
 H        -0.715910        -0.611193         2.423639
 H        -1.754366        -2.108202         2.286499
 H         0.302169        -2.154098         0.663074
 H        -1.163913        -1.910964        -0.265383
 H         0.150173         1.251524         1.984384
 H        -0.002104         1.946762         0.348445
 H        -2.230703         1.768159         0.314215
