19
Iteration:  1055charge 0 multiplicity 1
 C        -3.710332        -0.192062         1.012995
 C        -2.295572        -0.146799         1.473665
 C        -1.429867        -1.472290         1.286010
 C         0.068634        -1.185207         1.032381
 C         0.030796         0.136844         0.203970
 O        -0.160983        -0.108286        -0.992167
 C        -0.322789         1.484685         0.850904
 C        -1.783043         1.289309         1.351529
 O        -2.054404         0.797892         2.613869
 H        -4.225771        -1.172974         1.040950
 H        -4.286143         0.474734         1.538271
 H        -3.759998        -0.100437        -0.091335
 H        -1.528764        -2.278793         1.901440
 H        -1.982265        -1.803954         0.467452
 H         0.371800        -1.115401         2.091238
 H         0.574800        -2.005215         0.663233
 H         0.422116         1.704909         1.595812
 H        -0.289692         2.486321         0.101985
 H        -2.440836         2.077049         0.983222
