19
Iteration:  1144
 C        -3.916221        -0.171257         1.546069
 C        -2.441394        -0.137133         1.524664
 C        -1.675647        -1.431370         1.121978
 C        -0.136579        -1.209552         0.904694
 C         0.094972         0.115641         0.082486
 O         0.719247         0.082928        -0.945392
 C        -0.572335         1.431405         0.641926
 C        -1.971506         1.196003         1.232965
 O        -1.918766         0.693123         2.636189
 H        -4.277341        -0.571345         2.454319
 H        -4.217923         0.903345         1.350360
 H        -4.292407        -0.813144         0.756211
 H        -1.840091        -2.257961         1.766238
 H        -2.108066        -1.759250         0.175772
 H         0.231610        -1.080723         1.898597
 H         0.448113        -2.090370         0.513781
 H         0.144204         1.971445         1.352089
 H        -0.621596         2.018806        -0.342153
 H        -2.716809         2.012047         1.137198
