19
Iteration:  1209charge 0 multiplicity 1
 C        -3.940432        -0.332077         2.055451
 C        -2.566420        -0.125196         1.492856
 C        -1.886885        -1.362244         0.790133
 C        -0.402289        -1.122634         0.723017
 C         0.086477         0.135293         0.093721
 O         1.225298         0.102216        -0.353476
 C        -0.795350         1.390226         0.154029
 C        -1.950782         1.216145         1.238999
 O        -1.663918         0.656131         2.460811
 H        -4.070847        -1.168131         2.685403
 H        -4.069952         0.676649         2.619748
 H        -4.752647        -0.288650         1.359365
 H        -2.199212        -2.179601         1.473101
 H        -2.262289        -1.537366        -0.233142
 H         0.047213        -0.913533         1.688047
 H         0.088149        -2.022583         0.247604
 H        -0.203853         2.333306         0.239027
 H        -1.429986         1.464077        -0.846534
 H        -2.501504         2.180893         1.254343
