19
Iteration:  1657charge 0 multiplicity 1
 C        -3.759369        -0.277048         0.925421
 C        -2.377612        -0.057277         1.546597
 C        -1.385549        -1.246905         1.796454
 C        -0.112269        -1.247410         0.884208
 C        -0.005984        -0.008521         0.095476
 O         0.025383        -0.002596        -1.146761
 C        -0.139154         1.091900         1.064296
 C        -1.671911         1.194254         1.143462
 O        -2.302278         1.099717         2.500006
 H        -4.254986        -1.066631         1.377332
 H        -4.307454         0.672067         1.071218
 H        -3.666098        -0.419827        -0.139902
 H        -1.016675        -1.311738         2.820852
 H        -1.948642        -2.170425         1.727993
 H         0.788418        -1.310198         1.482108
 H        -0.281588        -1.942943         0.040844
 H         0.375807         0.924136         2.060716
 H         0.384231         1.995023         0.674436
 H        -2.126174         1.974913         0.524977
