19
Iteration:  3255
 C        -3.995073        -0.476384         1.315549
 C        -2.402976        -0.143618         1.494488
 C        -1.418607        -1.296935         1.664413
 C        -0.154362        -1.273790         0.790019
 C         0.030529         0.118754         0.066215
 O         0.472452         0.210338        -1.069321
 C        -0.359750         1.342310         0.852886
 C        -1.815859         1.199254         1.168202
 O        -2.133790         0.882112         2.478331
 H        -4.016891        -1.607358         1.386559
 H        -4.568113         0.022699         2.019507
 H        -4.289715        -0.131943         0.302655
 H        -1.232655        -1.104335         2.728652
 H        -1.973247        -2.190230         1.581840
 H         0.884386        -1.344523         1.123320
 H        -0.318087        -2.133497         0.067304
 H         0.005900         1.361602         1.839472
 H        -0.098207         2.319180         0.402349
 H        -2.302210         1.981458         0.544717
