19
Iteration:  1639
 C        -3.687003        -0.196440         0.870271
 C        -2.315446        -0.015566         1.504418
 C        -1.326638        -1.208383         1.829504
 C        -0.158416        -1.312514         0.813209
 C        -0.055733        -0.055687         0.055720
 O         0.038082        -0.094559        -1.155223
 C        -0.152365         1.244582         1.030131
 C        -1.672197         1.296903         1.289883
 O        -2.377998         0.958941         2.540281
 H        -4.275049        -0.973682         1.536661
 H        -4.252206         0.692576         0.837157
 H        -3.536786        -0.502509        -0.245061
 H        -1.038539        -1.023235         2.894507
 H        -1.961316        -2.224439         1.899618
 H         0.789378        -1.325734         1.389232
 H        -0.131095        -2.287688         0.304429
 H         0.338358         0.898026         1.893959
 H         0.212733         2.166533         0.698618
 H        -2.199805         1.997558         0.674560
