19
Iteration:  1031
 C        -3.795288        -0.148465         0.956890
 C        -2.360198        -0.126998         1.421226
 C        -1.436338        -1.329992         1.391364
 C         0.105640        -1.029643         1.126646
 C        -0.048666         0.073525         0.162958
 O        -0.162536         0.000016        -1.037825
 C        -0.309532         1.374442         0.850075
 C        -1.693422         1.180908         1.280144
 O        -2.004502         0.614328         2.660317
 H        -4.456902        -1.038937         1.067084
 H        -4.213167         0.694370         1.409092
 H        -3.823163        -0.106176        -0.137166
 H        -1.592030        -1.913158         2.317209
 H        -1.794431        -2.074825         0.707170
 H         0.730621        -0.840648         2.019147
 H         0.384467        -1.988850         0.751410
 H         0.518792         1.608751         1.531757
 H        -0.189733         2.227256         0.018789
 H        -2.337112         1.948207         0.859168
