19
Iteration:  4676
 C        -3.924653        -0.611538         1.624230
 C        -2.477386        -0.091062         1.637318
 C        -1.384206        -1.129043         1.817513
 C        -0.583716        -1.265829         0.369215
 C         0.053940         0.056432        -0.047817
 O         1.034382         0.154335        -0.818680
 C        -0.481377         1.396980         0.537070
 C        -1.894351         1.193422         1.028707
 O        -2.190278         0.909403         2.538255
 H        -4.378336        -0.634343         0.647616
 H        -4.017946        -1.741507         1.843919
 H        -4.560283        -0.012257         2.329117
 H        -0.776040        -0.838399         2.628036
 H        -1.771307        -2.087502         2.290134
 H         0.317778        -1.980671         0.450689
 H        -1.177829        -1.737414        -0.411819
 H         0.291763         1.671609         1.359510
 H        -0.433071         2.026604        -0.272020
 H        -2.567129         2.012158         0.795568
