19
Iteration:  3515
 C        -3.902265        -0.387890         1.992662
 C        -2.399827        -0.225792         1.672982
 C        -1.550173        -1.402910         1.387846
 C        -0.499068        -1.171582         0.119703
 C         0.080178         0.173054         0.013045
 O         1.329322         0.324401        -0.149196
 C        -0.893220         1.314893         0.107072
 C        -2.062399         1.127558         1.099938
 O        -1.913052         0.808824         2.449393
 H        -4.405815        -1.371850         2.266342
 H        -4.134386         0.268520         2.775024
 H        -4.710018        -0.081606         1.230487
 H        -0.856475        -1.394608         2.314981
 H        -2.060601        -2.345800         1.257118
 H         0.265340        -1.951647         0.166948
 H        -1.262587        -1.450503        -0.722670
 H        -0.344135         2.206000         0.192497
 H        -1.361812         1.387119        -0.904538
 H        -2.908710         1.763795         0.695903
