19
Iteration:  1419charge 0 multiplicity 1
 C        -3.933343        -0.324372         1.862218
 C        -2.388721        -0.097347         1.734371
 C        -1.507511        -1.422401         1.458065
 C        -0.705740        -1.253545         0.058067
 C         0.040241         0.085451         0.036280
 O         1.256371        -0.043667        -0.035645
 C        -0.758524         1.378973         0.144887
 C        -2.009990         1.207676         1.015251
 O        -1.863561         1.041184         2.446716
 H        -4.125381        -1.176267         2.527920
 H        -4.389349         0.646429         2.178047
 H        -4.230309        -0.687578         0.852706
 H        -0.747460        -1.630844         2.232976
 H        -2.229505        -2.299712         1.357190
 H         0.120794        -1.958932         0.047878
 H        -1.421453        -1.286338        -0.809050
 H        -0.180203         2.357000         0.229913
 H        -1.077215         1.412563        -0.902002
 H        -2.688048         2.054337         0.798805
