19
Iteration:  1314
 C        -3.751501        -0.190995         2.301424
 C        -2.420138        -0.123117         1.567666
 C        -1.946351        -1.465967         0.830800
 C        -0.607225        -1.325950         0.095382
 C        -0.061798         0.065157         0.258277
 O         1.052398         0.434455         0.579776
 C        -0.995726         1.113757        -0.174780
 C        -1.937648         1.245050         0.994433
 O        -1.267578         0.796868         2.171483
 H        -3.712336        -0.618365         3.408121
 H        -4.088881         0.790274         2.353847
 H        -4.366965        -0.810330         1.544365
 H        -1.936177        -2.214114         1.649565
 H        -2.808300        -1.713137         0.235735
 H         0.077873        -2.258032         0.277846
 H        -0.758111        -1.475573        -0.928788
 H        -0.244388         1.919644        -0.139307
 H        -1.452676         0.968464        -1.129195
 H        -2.457427         2.187024         1.036928
