19
Iteration:   506
 C        -3.737024        -0.531618         1.255460
 C        -2.366960        -0.070270         1.612067
 C        -1.391262        -1.166357         1.825581
 C        -0.700857        -1.325141         0.455566
 C         0.048795        -0.012992         0.019897
 O         0.708194         0.087608        -0.986545
 C        -0.302338         1.164112         0.968974
 C        -1.752658         1.206417         1.141853
 O        -2.266250         1.167470         2.501472
 H        -4.194844        -1.215188         1.953825
 H        -4.467863         0.363376         1.204589
 H        -3.602761        -0.888885         0.281917
 H        -0.622081        -0.827055         2.563966
 H        -1.959043        -2.076664         2.261581
 H         0.008898        -2.149183         0.398195
 H        -1.482910        -1.487670        -0.320477
 H         0.248442         1.228085         1.950017
 H        -0.112889         2.164084         0.432457
 H        -2.335963         1.928768         0.451457
