19
Iteration:  1434
 C        -3.931953        -0.323154         1.727329
 C        -2.446077        -0.093670         1.641166
 C        -1.469032        -1.300394         1.510161
 C        -0.764182        -1.276650         0.170637
 C         0.100478         0.008971         0.027636
 O         1.297355         0.014497        -0.209122
 C        -0.732682         1.317758         0.159800
 C        -1.979241         1.251868         1.145129
 O        -1.916672         0.962391         2.524516
 H        -4.275503        -0.986607         2.551644
 H        -4.390698         0.584330         1.980999
 H        -4.352922        -0.684897         0.769681
 H        -0.766914        -1.060558         2.290528
 H        -1.940688        -2.223519         1.726719
 H        -0.038410        -2.157546         0.051484
 H        -1.441325        -1.405972        -0.670169
 H         0.035272         2.188496         0.398227
 H        -1.256862         1.530349        -0.820768
 H        -2.834935         1.851364         0.888246
