19
Iteration:  3178
 C        -3.912532        -0.425624         1.261724
 C        -2.421175        -0.104071         1.471513
 C        -1.565874        -1.294788         1.310029
 C        -0.047133        -1.018216         1.082445
 C         0.079808         0.182328         0.096129
 O         0.349097        -0.039996        -1.086044
 C        -0.446796         1.449665         0.734484
 C        -1.868112         1.179524         1.261752
 O        -1.944140         0.701573         2.591294
 H        -4.112787        -1.428305         1.926126
 H        -4.459198         0.378118         1.698611
 H        -3.977445        -0.676950         0.138728
 H        -1.877603        -1.779201         2.283323
 H        -1.937076        -1.888912         0.470761
 H         0.343847        -0.657816         2.076851
 H         0.456278        -1.971925         0.732873
 H         0.135798         1.664052         1.589418
 H        -0.375438         2.252248        -0.014444
 H        -2.374449         2.172357         1.159602
