19
Iteration:  2516
 C        -4.002381        -0.491924         1.449771
 C        -2.464483        -0.151286         1.564738
 C        -1.448197        -1.220804         1.730642
 C        -0.576394        -1.205619         0.470368
 C         0.098542         0.097589         0.042067
 O         0.836516         0.164605        -0.879115
 C        -0.336377         1.345124         0.733239
 C        -1.831333         1.193430         1.111105
 O        -2.098784         0.857960         2.511891
 H        -4.453031        -0.592217         2.479835
 H        -4.472875         0.218112         0.874982
 H        -4.063048        -1.561293         0.981863
 H        -0.897482        -0.959739         2.624601
 H        -1.867383        -2.226708         1.846187
 H         0.234294        -1.890160         0.766615
 H        -1.098935        -1.653098        -0.411110
 H         0.314329         1.591063         1.530299
 H        -0.220968         2.126498        -0.032660
 H        -2.421337         2.075064         0.760987
