19
Iteration:  3277
 C        -3.792623        -0.502022         1.236591
 C        -2.430468        -0.129635         1.598796
 C        -1.449134        -1.304644         1.817078
 C        -0.357339        -1.205116         0.670892
 C         0.072607         0.115446         0.022523
 O         0.573868         0.235813        -1.103832
 C        -0.313575         1.286369         0.754284
 C        -1.873473         1.150511         1.212943
 O        -2.256429         0.904683         2.576300
 H        -3.986069        -1.600194         1.455280
 H        -4.393336         0.095532         1.824121
 H        -4.021069        -0.209041         0.189679
 H        -0.924994        -1.132478         2.757550
 H        -1.955013        -2.221287         1.721316
 H         0.668657        -1.381634         1.101476
 H        -0.493235        -2.039706        -0.099274
 H         0.269949         1.340671         1.656125
 H        -0.198237         2.273261         0.246025
 H        -2.206070         1.984560         0.597482
