19
Iteration:    44
 C        -3.712480        -0.159056         2.337090
 C        -2.430305        -0.027057         1.634640
 C        -1.755532        -1.300622         1.143983
 C        -0.763096        -1.233941        -0.065573
 C         0.064360        -0.013745         0.171332
 O         1.165097        -0.076303         0.575050
 C        -0.765421         1.229934        -0.105415
 C        -2.007777         1.169025         0.721247
 O        -1.654865         0.974136         2.160525
 H        -3.894294        -1.182759         2.727456
 H        -3.964769         0.472804         3.219573
 H        -4.509657         0.107403         1.587635
 H        -1.184635        -1.736314         1.921451
 H        -2.516663        -1.981662         0.897749
 H        -0.175358        -2.115956        -0.019213
 H        -1.349572        -1.124645        -0.991446
 H        -0.207713         2.120855         0.137912
 H        -1.053200         1.361768        -1.143122
 H        -2.705152         2.017796         0.647876
