19
Iteration:  3734charge 0 multiplicity 1
 C        -3.922391        -0.398881         2.150981
 C        -2.447914        -0.222953         1.649713
 C        -1.773504        -1.440075         1.094828
 C        -0.457227        -1.191650         0.329538
 C         0.094117         0.234072         0.033781
 O         1.274285         0.456897        -0.105754
 C        -0.934877         1.364589         0.049726
 C        -2.106524         1.103786         1.053955
 O        -1.637437         0.676915         2.372636
 H        -4.053986        -1.336145         2.678500
 H        -4.404465         0.350278         2.870710
 H        -4.528064        -0.437324         1.234119
 H        -1.665713        -2.080785         2.029355
 H        -2.440336        -1.998637         0.422789
 H         0.294492        -1.564832         1.032832
 H        -0.331775        -1.866445        -0.547821
 H        -0.335842         2.218182         0.317948
 H        -1.317151         1.473455        -1.023027
 H        -2.666105         2.005490         1.151639
