19
Iteration:  3082charge 0 multiplicity 1
 C        -3.939477        -0.449111         1.748560
 C        -2.525708        -0.060506         1.425876
 C        -1.752550        -1.283973         1.086136
 C        -0.294502        -1.131426         0.881058
 C         0.135835         0.075064         0.099940
 O         0.956168         0.090802        -0.833637
 C        -0.548258         1.406632         0.493001
 C        -1.943980         1.214699         1.218966
 O        -1.948686         0.729323         2.564445
 H        -3.841354        -0.857977         2.743995
 H        -4.505006         0.431266         1.899727
 H        -4.180077        -1.162856         0.950000
 H        -1.801424        -1.987688         1.918681
 H        -2.201043        -1.801774         0.158248
 H         0.134272        -0.991619         1.873563
 H         0.218300        -1.947099         0.319427
 H         0.004204         2.120531         1.158493
 H        -0.798612         1.995232        -0.450999
 H        -2.587161         2.101632         1.062638
