19
Iteration:  3183charge 0 multiplicity 1
 C        -3.927754        -0.483663         1.280971
 C        -2.453861        -0.112756         1.478909
 C        -1.557735        -1.300475         1.358221
 C        -0.088638        -1.021076         1.053392
 C         0.091457         0.126986         0.092317
 O         0.350750         0.002903        -1.123127
 C        -0.414656         1.439740         0.776680
 C        -1.846491         1.178428         1.227776
 O        -1.950408         0.761528         2.595714
 H        -4.018822        -1.410205         1.690147
 H        -4.497474         0.431963         1.629093
 H        -3.921101        -0.493234         0.210372
 H        -1.697153        -1.847187         2.287389
 H        -1.907850        -1.933326         0.469000
 H         0.238635        -0.736597         2.036922
 H         0.434817        -1.936994         0.831760
 H         0.256991         1.671018         1.673348
 H        -0.323634         2.336899         0.138904
 H        -2.480209         2.036390         1.015319
