19
Iteration:  4623
 C        -3.839016        -0.509918         1.767851
 C        -2.366810        -0.146352         1.680864
 C        -1.396870        -1.349115         1.618026
 C        -0.618790        -1.311977         0.310011
 C         0.056456         0.025180        -0.017406
 O         1.057941         0.280143        -0.632508
 C        -0.589339         1.354097         0.503583
 C        -1.972843         1.155236         1.020057
 O        -2.161327         1.067255         2.464049
 H        -3.992006        -1.125669         0.924402
 H        -4.232639        -1.045263         2.685000
 H        -4.529361         0.323666         1.741090
 H        -0.648135        -1.423827         2.401348
 H        -2.082449        -2.284471         1.731668
 H         0.219791        -2.043537         0.498845
 H        -1.194287        -1.485437        -0.615612
 H         0.239691         1.518521         1.262608
 H        -0.471104         2.015564        -0.286822
 H        -2.792838         1.684759         0.532952
