19
Iteration:  1683charge 0 multiplicity 1
 C        -3.747625        -0.396388         1.041626
 C        -2.328116        -0.021956         1.475445
 C        -1.537151        -1.303872         1.804724
 C        -0.250185        -1.470773         0.916437
 C         0.043281        -0.022182         0.129455
 O         0.089861         0.207409        -1.063002
 C        -0.155411         1.240318         1.002902
 C        -1.652330         1.244153         1.044598
 O        -2.168375         1.082008         2.418262
 H        -4.036616        -1.182869         1.838591
 H        -4.388039         0.457038         1.169034
 H        -3.817656        -0.674243        -0.062947
 H        -1.185516        -1.401353         2.873208
 H        -2.313408        -2.227763         1.773299
 H         0.606727        -1.599918         1.603945
 H        -0.280269        -2.218580         0.134825
 H         0.207683         1.302105         1.980592
 H         0.252540         1.982287         0.352847
 H        -2.154036         1.996538         0.430520
