19
Iteration:  1628
 C        -3.634117        -0.226744         0.849045
 C        -2.304120        -0.051295         1.437846
 C        -1.406189        -1.162448         1.823364
 C        -0.167102        -1.416137         0.953615
 C        -0.060255        -0.042821         0.016379
 O         0.059364        -0.037868        -1.194719
 C        -0.181285         1.261699         1.003404
 C        -1.721078         1.294497         1.346872
 O        -2.306277         0.967151         2.578273
 H        -4.376527        -1.015463         1.384973
 H        -4.075250         0.705100         0.763468
 H        -3.532329        -0.787493        -0.198460
 H        -0.956279        -0.874275         2.805872
 H        -2.072804        -2.160980         1.983558
 H         0.781619        -1.615003         1.487625
 H        -0.423470        -2.067153         0.111926
 H         0.490205         1.161358         1.793994
 H         0.148888         2.116862         0.496019
 H        -2.247422         2.069933         0.833064
