19
Iteration:  2395
 C        -3.817160        -0.242940         1.380537
 C        -2.348050        -0.124557         1.551095
 C        -1.474597        -1.468999         1.548728
 C        -0.166129        -1.291211         0.810410
 C        -0.032553         0.073393        -0.009740
 O         0.603121         0.105044        -1.035101
 C        -0.481630         1.309224         0.805932
 C        -1.943657         1.205850         1.173893
 O        -2.148157         0.975188         2.539112
 H        -4.144471        -1.307642         1.340440
 H        -4.242795         0.390625         2.081843
 H        -4.021214         0.135300         0.324186
 H        -1.380585        -1.824929         2.567635
 H        -2.223540        -2.074957         1.011328
 H         0.613819        -1.085954         1.502300
 H         0.122132        -2.129375         0.162912
 H         0.257545         1.350917         1.733637
 H        -0.233923         2.135587         0.098079
 H        -2.742167         1.882689         0.749410
