19
Iteration:    78
 C        -3.617094        -0.225457         2.275424
 C        -2.390357        -0.015023         1.449505
 C        -1.768166        -1.346311         1.104383
 C        -0.827074        -1.397683        -0.070520
 C        -0.101386        -0.069474         0.232958
 O         0.973783         0.071064         0.767484
 C        -0.842102         1.302490        -0.210531
 C        -1.919039         1.287359         0.864628
 O        -1.425304         0.972795         2.133467
 H        -3.823823        -1.317725         2.471060
 H        -3.563075         0.427309         3.084793
 H        -4.472185         0.029908         1.596440
 H        -1.199151        -1.653631         1.965033
 H        -2.527632        -2.073312         0.976439
 H        -0.136896        -2.286821        -0.039308
 H        -1.353707        -1.429981        -0.979812
 H        -0.112867         2.141780        -0.135199
 H        -1.277084         1.166863        -1.152854
 H        -2.570070         2.149847         0.855599
