19
Iteration:  1493
 C        -3.820515        -0.419755         1.488599
 C        -2.384076        -0.053631         1.672147
 C        -1.478200        -1.331862         1.634181
 C        -0.622477        -1.244545         0.409914
 C         0.071355         0.050735         0.017931
 O         1.009635        -0.100335        -0.756499
 C        -0.468594         1.366680         0.665432
 C        -1.931002         1.176605         1.075083
 O        -2.181555         1.133650         2.555062
 H        -4.049163        -0.867664         2.433865
 H        -4.453203         0.597043         1.255115
 H        -4.008026        -1.120786         0.684140
 H        -0.970564        -1.416455         2.656084
 H        -2.127880        -2.271347         1.612886
 H         0.243809        -1.822354         0.333078
 H        -1.304142        -1.460284        -0.435399
 H         0.208729         1.569293         1.409159
 H        -0.342023         2.219204        -0.042707
 H        -2.709567         1.795748         0.535864
