19
Iteration:  1250
 C        -3.858740        -0.188838         2.300415
 C        -2.507697        -0.146469         1.490840
 C        -2.053905        -1.312049         0.712551
 C        -0.498202        -1.361714         0.610548
 C         0.112648         0.100518         0.221520
 O         1.298176         0.453615         0.055004
 C        -0.988164         1.185277        -0.015139
 C        -2.031906         1.194852         1.047863
 O        -1.401135         0.619247         2.217293
 H        -4.140585        -1.069423         2.943232
 H        -3.815894         0.612006         3.011343
 H        -4.713638         0.035155         1.599809
 H        -2.330525        -2.359007         1.097716
 H        -2.470115        -1.134269        -0.304310
 H        -0.131122        -1.621000         1.662982
 H        -0.177373        -2.048071        -0.135861
 H        -0.533198         2.099400        -0.148493
 H        -1.282590         0.912518        -1.021374
 H        -2.675583         2.033030         1.303641
