19
Iteration:   679
 C        -3.887902        -0.180857         2.200608
 C        -2.413291        -0.130955         1.637752
 C        -1.696564        -1.414978         1.243783
 C        -0.706947        -1.241141         0.057728
 C         0.054306         0.079547         0.083599
 O         1.224099         0.244052         0.302641
 C        -0.831137         1.266817        -0.076961
 C        -1.963010         1.090386         0.935433
 O        -1.643766         0.807826         2.282206
 H        -3.949264        -0.931037         2.998366
 H        -4.155248         0.887329         2.339928
 H        -4.681542        -0.366454         1.401591
 H        -1.205936        -1.909302         2.072213
 H        -2.473384        -2.064985         0.851806
 H        -0.063770        -2.120702        -0.128027
 H        -1.373621        -1.144630        -0.860963
 H        -0.355352         2.199518         0.021500
 H        -1.097526         1.223326        -1.140117
 H        -2.432802         2.053219         0.906977
