19
Iteration:  4775
 C        -3.754735        -0.591926         1.431696
 C        -2.432870        -0.088827         1.597843
 C        -1.278607        -1.097868         1.737558
 C        -0.462619        -1.374917         0.416658
 C         0.069573        -0.027439         0.015429
 O         0.699688         0.147256        -1.017867
 C        -0.429075         1.303155         0.874110
 C        -1.947429         1.290313         1.149211
 O        -2.244327         1.049980         2.530651
 H        -3.812334        -1.563839         0.930272
 H        -4.197151        -0.859335         2.495314
 H        -4.390853         0.051433         0.815196
 H        -0.586080        -0.749376         2.459864
 H        -1.754345        -2.013439         2.215737
 H         0.356887        -2.174219         0.562405
 H        -0.930162        -1.787819        -0.478911
 H        -0.126192         1.292342         1.967235
 H        -0.209176         2.163812         0.367087
 H        -2.685889         1.830605         0.555283
