19
Iteration:  1254
 C        -3.852138        -0.186589         2.302600
 C        -2.519177        -0.126735         1.501211
 C        -2.036835        -1.344850         0.698578
 C        -0.496486        -1.334976         0.591792
 C         0.093170         0.120666         0.214440
 O         1.288481         0.445022         0.106318
 C        -0.997253         1.177522        -0.034969
 C        -1.993995         1.166320         1.071382
 O        -1.398999         0.625881         2.207971
 H        -4.047486        -1.061796         2.853598
 H        -3.847070         0.721758         3.051956
 H        -4.756789        -0.004208         1.761245
 H        -2.334708        -2.307049         1.106381
 H        -2.528446        -1.177895        -0.286945
 H        -0.175419        -1.605500         1.553341
 H        -0.207234        -2.080503        -0.237396
 H        -0.429869         2.124347        -0.316416
 H        -1.414852         0.843062        -1.084157
 H        -2.685833         2.041823         1.221326
