19
Iteration:  3007charge 0 multiplicity 1
 C        -4.058929        -0.317383         1.894555
 C        -2.493551        -0.134932         1.553017
 C        -1.749370        -1.423991         1.280384
 C        -0.413567        -1.297751         0.483517
 C         0.084163         0.182582         0.119054
 O         1.248797         0.272772        -0.314487
 C        -0.779192         1.386740         0.094941
 C        -1.954907         1.192087         1.094749
 O        -1.746552         0.722629         2.476586
 H        -4.120105        -1.278464         2.364448
 H        -4.233492         0.389367         2.747026
 H        -4.694383        -0.220537         0.970906
 H        -1.587579        -1.838844         2.257775
 H        -2.421331        -2.186045         0.812078
 H         0.425654        -1.818890         0.852758
 H        -0.684305        -1.609493        -0.584501
 H        -0.131661         2.330691         0.324494
 H        -1.356552         1.530199        -0.871023
 H        -2.688837         2.012353         1.077215
