19
Iteration:  2878charge 0 multiplicity 1
 C        -3.578752        -0.418534         2.394287
 C        -2.370848        -0.061544         1.511950
 C        -1.876279        -1.434547         1.016286
 C        -0.654007        -1.236776         0.117663
 C        -0.014919         0.112319         0.162766
 O         1.087874         0.319669         0.647354
 C        -0.904936         1.307122        -0.246634
 C        -2.052129         1.177897         0.761442
 O        -1.537089         0.834578         2.164257
 H        -3.166899        -0.933671         3.223728
 H        -4.215858         0.456044         2.797703
 H        -4.391871        -1.080151         2.021438
 H        -1.524443        -2.045885         1.953725
 H        -2.682250        -1.951351         0.511224
 H         0.051982        -1.978409         0.217801
 H        -1.073774        -1.373883        -0.900232
 H        -0.358002         2.209155        -0.023284
 H        -1.117842         1.183846        -1.367194
 H        -2.753168         1.988324         0.768498
