19
Iteration:  1506
 C        -3.799620        -0.413393         1.511978
 C        -2.374848        -0.050826         1.661810
 C        -1.482607        -1.269811         1.731309
 C        -0.582362        -1.207682         0.485772
 C         0.072891         0.034042         0.025848
 O         0.907885        -0.022486        -0.840709
 C        -0.389496         1.267471         0.711521
 C        -1.877001         1.256177         1.046647
 O        -2.232947         1.052714         2.450355
 H        -4.337087        -0.934127         2.368092
 H        -4.501983         0.472722         1.323712
 H        -3.838910        -1.156772         0.641842
 H        -0.817979        -1.397536         2.613920
 H        -2.163241        -2.173616         1.533975
 H         0.012484        -2.113781         0.532560
 H        -1.201346        -1.402779        -0.426500
 H        -0.047562         1.190334         1.693843
 H        -0.007993         2.110548         0.233954
 H        -2.566323         1.821386         0.404003
