19
Iteration:  2669
 C        -3.958195        -0.314109         1.543734
 C        -2.470755        -0.192303         1.623945
 C        -1.541075        -1.387792         1.559932
 C        -0.491433        -1.233088         0.475212
 C         0.127311         0.120165         0.111254
 O         1.039930         0.176925        -0.650038
 C        -0.670325         1.380930         0.414527
 C        -2.014714         1.116713         1.139661
 O        -1.887627         0.883734         2.554391
 H        -4.290222        -0.756250         2.483071
 H        -4.277815         0.683991         1.552141
 H        -4.255752        -0.855350         0.552925
 H        -0.951779        -1.507748         2.503130
 H        -2.134535        -2.341945         1.480503
 H         0.351238        -1.907848         0.614908
 H        -0.886034        -1.564816        -0.544041
 H         0.005614         2.022127         1.036903
 H        -0.770937         1.944102        -0.537140
 H        -2.852545         1.712115         0.752724
