19
Iteration:  1114charge 0 multiplicity 1
 C        -4.013887        -0.301879         1.388108
 C        -2.499456        -0.112138         1.374044
 C        -1.600277        -1.397511         1.249371
 C        -0.057958        -1.034264         1.037625
 C         0.059553         0.143394         0.113840
 O         0.362146         0.005665        -1.084641
 C        -0.261733         1.441961         0.799146
 C        -1.803929         1.206228         1.272656
 O        -1.963546         0.656433         2.575501
 H        -4.147758        -0.934792         2.263220
 H        -4.670679         0.685618         1.441668
 H        -4.323590        -0.768407         0.451023
 H        -1.747917        -2.086128         2.099533
 H        -1.968760        -1.803874         0.267057
 H         0.273773        -0.732244         2.037128
 H         0.516988        -1.956244         0.635588
 H         0.407789         1.560580         1.722896
 H        -0.165279         2.184745         0.105984
 H        -2.300906         2.180503         1.067016
