19
Iteration:   733
 C        -3.683382        -0.286565         2.369357
 C        -2.428113        -0.039910         1.513115
 C        -1.914544        -1.412138         0.971427
 C        -0.650895        -1.277865         0.038040
 C        -0.016445         0.030622         0.128537
 O         1.034012         0.310067         0.670957
 C        -0.899394         1.191141        -0.231669
 C        -1.969503         1.216270         0.873651
 O        -1.392923         0.839514         2.194996
 H        -3.464847        -0.499661         3.448468
 H        -4.237080         0.691639         2.578249
 H        -4.270626        -1.172751         1.993052
 H        -1.625482        -1.988309         1.851327
 H        -2.717499        -1.966100         0.547476
 H         0.074361        -2.129593         0.208358
 H        -0.966902        -1.314059        -1.095357
 H        -0.182875         2.106920        -0.244763
 H        -1.404355         0.985001        -1.206121
 H        -2.554656         2.125558         0.919095
