19
Iteration:   492
 C        -3.690674        -0.401435         1.183169
 C        -2.334540        -0.046508         1.679654
 C        -1.298399        -1.197070         1.906848
 C        -0.641734        -1.314281         0.475763
 C        -0.082272         0.000651         0.004538
 O         0.629309         0.100408        -0.971746
 C        -0.192091         1.179364         0.911160
 C        -1.767675         1.180183         1.183622
 O        -2.398554         1.127965         2.455155
 H        -4.055202        -1.268952         1.851622
 H        -4.323473         0.367768         1.271513
 H        -3.926745        -0.744928         0.076175
 H        -0.596072        -0.982061         2.769112
 H        -1.787270        -2.198530         2.090105
 H         0.162157        -2.088416         0.365855
 H        -1.367482        -1.645779        -0.183962
 H         0.303341         0.779366         1.753872
 H         0.376205         1.946746         0.496423
 H        -2.276894         1.668796         0.408314
