19
Iteration:  1738
 C        -3.880275        -0.293078         1.200584
 C        -2.482090        -0.029439         1.614623
 C        -1.398877        -1.164678         1.823097
 C        -0.326533        -1.313004         0.672771
 C         0.070467        -0.021153        -0.040110
 O         0.638941         0.043450        -1.136553
 C        -0.283683         1.150571         0.855136
 C        -1.812415         1.217485         1.244679
 O        -2.338930         1.024499         2.546439
 H        -4.580403        -0.440915         2.075759
 H        -4.200625         0.589045         0.651466
 H        -3.839028        -1.203504         0.572820
 H        -0.811138        -0.966190         2.776970
 H        -1.987840        -2.199769         1.943362
 H         0.570786        -1.804951         1.031853
 H        -0.553856        -2.099445        -0.031013
 H         0.116133         0.859192         1.774546
 H         0.260652         1.973548         0.392004
 H        -2.302068         1.936081         0.568204
