19
Iteration:  1558
 C        -3.787557        -0.392357         1.213424
 C        -2.403479        -0.018688         1.605244
 C        -1.358789        -1.151582         1.840556
 C        -0.414300        -1.364095         0.605412
 C         0.036686        -0.043761         0.028062
 O         0.501590         0.097557        -1.110606
 C        -0.182392         1.097957         1.011667
 C        -1.740090         1.255496         1.119970
 O        -2.388962         1.089069         2.462346
 H        -4.304197        -0.887315         1.978733
 H        -4.366251         0.637503         1.093470
 H        -3.824452        -1.023360         0.366928
 H        -0.787286        -0.867737         2.774188
 H        -1.912270        -2.107360         2.021617
 H         0.415964        -1.999649         0.855493
 H        -1.092706        -1.909280        -0.074022
 H         0.250192         0.845421         2.026582
 H         0.338161         2.034693         0.598448
 H        -2.209846         1.987452         0.399334
