19
Iteration:   828charge 0 multiplicity 1
 C        -3.940303        -0.155938         2.255790
 C        -2.548134        -0.107681         1.528949
 C        -2.019056        -1.327832         0.865895
 C        -0.477963        -1.161139         0.529981
 C         0.070387         0.113201         0.108325
 O         1.265728         0.361055         0.093000
 C        -0.940797         1.228125        -0.157141
 C        -1.944313         1.124135         1.065948
 O        -1.424391         0.515999         2.298878
 H        -3.999169        -0.999552         2.945597
 H        -4.004295         0.648408         2.858597
 H        -4.735112        -0.295660         1.509368
 H        -2.019983        -2.268678         1.503589
 H        -2.660516        -1.560213        -0.027329
 H         0.154764        -1.289443         1.461498
 H        -0.129403        -1.860435        -0.140199
 H        -0.388753         2.162903        -0.112033
 H        -1.462525         1.085276        -1.051599
 H        -2.448686         2.070610         1.198912
