19
Iteration:  3331
 C        -3.707384        -0.600746         1.209032
 C        -2.386218        -0.121336         1.656616
 C        -1.272464        -1.095553         1.800227
 C        -0.628152        -1.285509         0.462879
 C        -0.063126         0.052914        -0.036670
 O         0.731887         0.244750        -0.928650
 C        -0.377803         1.297988         0.823757
 C        -1.855263         1.198273         1.197470
 O        -2.277284         0.909246         2.598184
 H        -4.128596        -1.118995         2.121573
 H        -4.330980         0.186524         0.948760
 H        -3.583578        -1.350630         0.393158
 H        -0.489238        -0.814753         2.572105
 H        -1.616964        -2.021299         2.212176
 H         0.123231        -2.116225         0.394437
 H        -1.409773        -1.592046        -0.320802
 H         0.400052         1.212867         1.679589
 H        -0.192097         2.276630         0.275706
 H        -2.444162         1.814801         0.425797
