19
Iteration:  4838charge 0 multiplicity 1
 C        -3.875328        -0.499715         1.329697
 C        -2.351301        -0.130275         1.595154
 C        -1.309665        -1.207676         1.756672
 C        -0.353139        -1.300970         0.583382
 C         0.114356         0.067702         0.101403
 O         0.504240         0.204630        -1.057237
 C        -0.414506         1.310722         0.782307
 C        -1.883909         1.135781         1.130561
 O        -2.174199         0.982715         2.537643
 H        -4.114731        -1.493466         1.612666
 H        -4.458177         0.194804         2.031863
 H        -4.115112        -0.286103         0.286669
 H        -0.729622        -1.068864         2.693317
 H        -1.736636        -2.196014         1.997075
 H         0.522339        -1.972813         0.766341
 H        -0.979095        -1.659023        -0.247860
 H        -0.051701         1.500904         1.833344
 H        -0.007280         2.056370         0.153843
 H        -2.609691         1.711356         0.600902
