19
Iteration:  4683
 C        -3.902988        -0.643131         1.596654
 C        -2.444512        -0.089113         1.559928
 C        -1.376865        -1.106796         1.813856
 C        -0.606586        -1.334848         0.411902
 C         0.049943         0.043708        -0.065383
 O         0.971818         0.197384        -0.792999
 C        -0.497669         1.314180         0.591875
 C        -1.862315         1.186395         1.057988
 O        -2.190361         0.953810         2.563933
 H        -4.313786        -0.330940         0.570828
 H        -3.882749        -1.693514         1.851099
 H        -4.499104         0.092876         2.201482
 H        -0.500663        -0.635956         2.441983
 H        -1.836687        -1.984569         2.166187
 H         0.274077        -1.990251         0.445530
 H        -1.047986        -1.889385        -0.490833
 H         0.283143         1.770662         1.165701
 H        -0.581319         2.102092        -0.311658
 H        -2.577728         1.981634         0.798217
