19
Iteration:  3636charge 0 multiplicity 1
 C        -3.636735        -0.342938         2.286539
 C        -2.382413        -0.171730         1.500532
 C        -1.674535        -1.454856         1.000435
 C        -0.644853        -1.236205        -0.022850
 C        -0.045696         0.211592         0.224438
 O         1.094308         0.445895         0.596128
 C        -1.154581         1.272672        -0.091614
 C        -2.105502         1.151621         1.001139
 O        -1.375331         0.711508         2.120662
 H        -3.485212        -0.217296         3.349930
 H        -4.359106         0.425779         1.959241
 H        -4.147043        -1.314451         2.140493
 H        -1.220987        -2.062172         1.813388
 H        -2.393836        -2.125377         0.616867
 H         0.150845        -1.994196        -0.072717
 H        -1.143247        -1.316519        -1.074576
 H        -0.790989         2.251900        -0.091385
 H        -1.369313         1.016370        -1.107055
 H        -2.849831         1.947936         1.019224
