19
Iteration:  4520
 C        -3.936746        -0.445282         1.832905
 C        -2.422740        -0.148760         1.627123
 C        -1.310800        -1.245795         1.491604
 C        -0.687432        -1.226749         0.111251
 C        -0.025522         0.107269         0.034666
 O         1.186613         0.146737        -0.280632
 C        -0.833959         1.365760         0.344236
 C        -2.056138         1.112871         1.073409
 O        -1.808508         0.903447         2.450991
 H        -4.191853        -1.589619         1.741065
 H        -4.329641        -0.075776         2.778843
 H        -4.453343        -0.108124         0.886813
 H        -0.539352        -0.958193         2.257692
 H        -1.749157        -2.201285         1.646570
 H         0.162184        -1.867479         0.077818
 H        -1.465985        -1.483050        -0.617487
 H        -0.189051         1.946014         0.961125
 H        -0.898170         1.868819        -0.637312
 H        -2.964173         1.720167         0.784797
