19
Iteration:  3230
 C        -3.910964        -0.395685         1.340260
 C        -2.308183        -0.157827         1.548466
 C        -1.419981        -1.334330         1.462259
 C        -0.016291        -1.226858         0.815303
 C         0.139431         0.080132         0.100995
 O         0.357617         0.123490        -1.085130
 C        -0.383472         1.302781         0.922600
 C        -1.926782         1.224585         1.158277
 O        -2.254983         0.948173         2.496701
 H        -3.952804        -1.445777         1.480822
 H        -4.275194         0.158481         2.165445
 H        -4.319026        -0.000295         0.419659
 H        -1.391380        -1.473927         2.572250
 H        -1.979974        -2.114950         1.037968
 H         0.861311        -1.397159         1.496660
 H         0.028720        -2.052498         0.122049
 H         0.006220         1.603990         1.964472
 H        -0.032288         2.087622         0.233321
 H        -2.561824         1.861009         0.506124
