19
Iteration:  1338charge 0 multiplicity 1
 C        -3.658692        -0.135045         2.295163
 C        -2.373496        -0.115957         1.546060
 C        -1.875182        -1.427054         0.978600
 C        -0.646393        -1.257075         0.003295
 C         0.038961         0.120835         0.166202
 O         1.155573         0.222752         0.613340
 C        -1.008388         1.277591        -0.130298
 C        -2.030445         1.145043         0.882809
 O        -1.480832         0.759056         2.212437
 H        -3.378956        -0.436811         3.332656
 H        -4.154548         0.911189         2.418440
 H        -4.251821        -0.919709         1.783833
 H        -1.642921        -2.106467         1.886868
 H        -2.827834        -1.781721         0.512889
 H         0.031761        -2.118009         0.132823
 H        -0.950110        -1.415167        -1.028705
 H        -0.545363         2.175164        -0.115846
 H        -1.421893         1.051474        -1.114518
 H        -2.845409         1.916079         0.883283
