19
Iteration:   171charge 0 multiplicity 1
 C        -3.950387        -0.141372         2.192109
 C        -2.583157        -0.037743         1.500342
 C        -1.984734        -1.405758         1.096713
 C        -0.632705        -1.266230         0.305277
 C         0.099174         0.059744         0.145194
 O         1.363397         0.076477         0.078496
 C        -0.685829         1.290626         0.021772
 C        -1.978646         1.266379         0.976676
 O        -1.564783         0.781068         2.294825
 H        -3.913485        -0.560782         3.131189
 H        -4.532050         0.854671         2.309291
 H        -4.563277        -0.895807         1.737671
 H        -1.965596        -2.020346         2.079564
 H        -2.746851        -2.033764         0.414509
 H         0.152888        -1.784076         0.790358
 H        -0.679780        -1.812535        -0.732627
 H        -0.148649         2.169139         0.266522
 H        -1.025485         1.237560        -1.112003
 H        -2.592950         2.219950         1.075846
