19
Iteration:  2147
 C        -4.038726        -0.332142         1.975678
 C        -2.432649        -0.101253         1.688456
 C        -1.901974        -1.374373         1.059018
 C        -0.479506        -1.266941         0.518459
 C         0.178292         0.131450         0.235470
 O         1.274875         0.181002        -0.256270
 C        -0.854028         1.301909         0.120266
 C        -2.070858         1.203597         1.064565
 O        -1.543091         0.853946         2.374946
 H        -4.072357        -1.222853         2.588369
 H        -4.509769         0.434702         2.473747
 H        -4.488376        -0.369531         0.965442
 H        -2.070004        -2.182554         1.827466
 H        -2.670637        -1.615210         0.288364
 H         0.283027        -1.833429         1.080590
 H        -0.562440        -1.712947        -0.523312
 H        -0.339759         2.328397         0.292686
 H        -1.175029         1.209770        -1.028847
 H        -2.741289         1.945375         0.987505
