19
Iteration:  3740
 C        -3.974188        -0.417272         2.110317
 C        -2.519385        -0.201703         1.673211
 C        -1.801864        -1.435256         1.125103
 C        -0.378569        -1.211605         0.355303
 C         0.087385         0.186092        -0.008743
 O         1.261028         0.459383        -0.139400
 C        -0.965964         1.387194         0.079064
 C        -2.072130         1.150781         1.009263
 O        -1.580888         0.653993         2.403033
 H        -4.080421        -1.461965         2.549067
 H        -4.276856         0.292059         2.821006
 H        -4.719310        -0.415215         1.243655
 H        -1.588157        -1.924427         2.055976
 H        -2.347618        -2.143199         0.379024
 H         0.368802        -1.455980         1.132693
 H        -0.247774        -1.905494        -0.463332
 H        -0.344777         2.268756         0.396906
 H        -1.311006         1.646100        -0.946801
 H        -2.678681         2.075655         1.276883
