19
Iteration:  4919charge 0 multiplicity 1
 C        -3.769201        -0.522311         1.312209
 C        -2.346787        -0.153674         1.553059
 C        -1.264093        -1.239505         1.826555
 C        -0.496233        -1.298527         0.505944
 C        -0.027199         0.150319         0.021424
 O         0.601569         0.195595        -1.028483
 C        -0.378708         1.340880         0.835259
 C        -1.886730         1.163337         1.156665
 O        -2.197048         0.958259         2.586008
 H        -4.325982        -0.277660         2.306020
 H        -4.298213         0.109331         0.617995
 H        -4.086433        -1.585172         1.067064
 H        -0.565440        -0.962513         2.549942
 H        -1.796221        -2.192139         2.007649
 H         0.483895        -1.850285         0.659889
 H        -1.082209        -1.823023        -0.268117
 H         0.298389         1.260496         1.704828
 H        -0.257372         2.118805         0.078857
 H        -2.694861         1.746958         0.590896
