19
Iteration:  1298
 C        -3.749758        -0.190896         2.266587
 C        -2.408194        -0.035348         1.551596
 C        -2.025366        -1.333175         0.875116
 C        -0.565105        -1.366097         0.186988
 C         0.023665         0.087976         0.141059
 O         1.098535         0.421409         0.580960
 C        -1.023272         1.146097        -0.246070
 C        -1.921397         1.201790         1.017825
 O        -1.313877         0.646098         2.213489
 H        -3.570716        -0.829919         3.089747
 H        -4.204257         0.760835         2.778702
 H        -4.421148        -0.735240         1.641832
 H        -1.951521        -2.139675         1.602531
 H        -2.706232        -1.587221         0.034358
 H         0.154933        -1.852732         0.773095
 H        -0.657676        -1.747662        -0.904776
 H        -0.687980         2.213270        -0.551488
 H        -1.775748         0.883632        -1.078823
 H        -2.531695         2.118045         1.192868
