19
Iteration:  2155charge 0 multiplicity 1
 C        -4.052928        -0.346409         1.954211
 C        -2.499315        -0.073642         1.624733
 C        -1.875236        -1.316637         1.176424
 C        -0.466146        -1.293394         0.556198
 C         0.173275         0.152718         0.193505
 O         1.304816         0.161502        -0.319825
 C        -0.829963         1.325221         0.144985
 C        -2.052509         1.205396         1.058601
 O        -1.573593         0.791861         2.372446
 H        -4.126938        -1.389666         2.389304
 H        -4.544511         0.416976         2.702045
 H        -4.501903        -0.294328         0.930484
 H        -2.019690        -2.093851         1.907484
 H        -2.503138        -1.743854         0.384616
 H         0.286066        -1.862516         1.091543
 H        -0.587058        -1.672905        -0.491535
 H        -0.408133         2.217430         0.377010
 H        -1.190761         1.511368        -0.909226
 H        -2.701461         2.103668         1.061776
