19
Iteration:  4456
 C        -3.896881        -0.464002         2.038700
 C        -2.458607        -0.142063         1.654503
 C        -1.612287        -1.389474         1.275278
 C        -0.636335        -1.263524         0.077760
 C         0.114552         0.127770         0.112423
 O         1.302533         0.290418        -0.152896
 C        -0.889187         1.251699         0.208514
 C        -2.147079         1.188972         1.035276
 O        -1.651181         0.973511         2.445054
 H        -3.803386        -1.334672         2.743210
 H        -4.621214         0.247349         2.349329
 H        -4.368573        -0.980944         1.160665
 H        -1.118474        -1.765586         2.203982
 H        -2.318905        -2.263759         1.055829
 H         0.112805        -2.061349        -0.110466
 H        -1.285424        -1.040114        -0.808391
 H        -0.344608         2.148299         0.605571
 H        -1.208955         1.525806        -0.767734
 H        -2.990487         1.885217         0.857997
