19
Iteration:  1188charge 0 multiplicity 1
 C        -4.006682        -0.333604         1.854969
 C        -2.521295        -0.019681         1.571212
 C        -1.883750        -1.278854         1.004721
 C        -0.371474        -1.100937         0.778133
 C         0.180729         0.074698         0.051053
 O         1.209514         0.101684        -0.627648
 C        -0.750127         1.377329         0.242950
 C        -1.938522         1.252477         1.257877
 O        -1.774857         0.558475         2.559212
 H        -3.870084        -1.137855         2.521895
 H        -4.657111         0.567711         2.225860
 H        -4.466265        -0.793697         1.004710
 H        -2.068769        -2.058113         1.711077
 H        -2.457569        -1.541474         0.111223
 H         0.126717        -0.952300         1.709677
 H         0.106143        -2.083007         0.403434
 H        -0.179540         2.296183         0.637079
 H        -1.233005         1.620103        -0.796298
 H        -2.604801         2.137490         1.213749
