19
Iteration:  1295charge 0 multiplicity 1
 C        -3.746848        -0.195633         2.257862
 C        -2.416359        -0.054396         1.561330
 C        -2.010466        -1.295397         0.869970
 C        -0.570253        -1.352427         0.207897
 C         0.022451         0.102598         0.125001
 O         1.120653         0.408128         0.576017
 C        -1.024690         1.165317        -0.284846
 C        -1.937784         1.216907         1.012823
 O        -1.333371         0.609494         2.234747
 H        -3.501726        -0.826455         3.110320
 H        -4.078555         0.766685         2.817077
 H        -4.449449        -0.693941         1.603018
 H        -1.993381        -2.153093         1.655912
 H        -2.693791        -1.546471         0.012623
 H         0.191336        -1.851514         0.826465
 H        -0.653791        -1.850049        -0.785036
 H        -0.728299         2.100100        -0.569346
 H        -1.782738         0.869855        -1.024264
 H        -2.530272         2.147059         1.185454
