19
Iteration:  3114charge 0 multiplicity 1
 C        -4.045734        -0.292500         1.558470
 C        -2.490600        -0.153612         1.547723
 C        -1.580417        -1.243301         0.980456
 C        -0.131224        -0.940802         1.170621
 C         0.068389         0.118794         0.103547
 O         0.673407        -0.049010        -0.908618
 C        -0.605798         1.425167         0.486351
 C        -1.902966         1.192690         1.256563
 O        -1.803083         0.536769         2.562339
 H        -4.387525        -0.736700         2.550519
 H        -4.467401         0.589543         1.126256
 H        -4.395634        -1.044294         0.790565
 H        -1.803613        -2.227114         1.475027
 H        -1.803406        -1.374192        -0.154121
 H         0.117629        -0.535259         2.174950
 H         0.630464        -1.762757         1.102914
 H        -0.005533         2.118678         1.032965
 H        -0.813730         2.094988        -0.396813
 H        -2.600335         2.059987         1.365393
