19
Iteration:  4875
 C        -3.759262        -0.527774         1.249104
 C        -2.349638        -0.118042         1.599665
 C        -1.390933        -1.208899         1.791241
 C        -0.368833        -1.267767         0.595865
 C        -0.026963         0.062085        -0.068857
 O         0.607442         0.150396        -1.122841
 C        -0.398702         1.334303         0.704402
 C        -1.852219         1.248111         1.279037
 O        -2.246143         0.952229         2.718684
 H        -4.093596        -1.254237         2.062341
 H        -4.491873         0.270878         1.148559
 H        -3.889494        -1.167698         0.349790
 H        -0.932133        -0.939086         2.693495
 H        -2.002592        -2.115240         1.847338
 H         0.625912        -1.657102         0.962926
 H        -0.553786        -2.005886        -0.195773
 H         0.231797         1.161285         1.598398
 H        -0.148650         2.302813         0.265790
 H        -2.650900         1.791117         0.696725
