19
Iteration:    15
 C        -3.874606        -0.086723         2.152495
 C        -2.527181        -0.072672         1.545267
 C        -1.795870        -1.457588         1.252202
 C        -0.780512        -1.264132         0.026879
 C         0.111987        -0.026649         0.122225
 O         1.373134         0.019803         0.316312
 C        -0.789414         1.174096         0.024418
 C        -1.959392         1.184972         0.908895
 O        -1.648129         1.049455         2.262393
 H        -3.906254        -0.942243         2.880429
 H        -4.188323         0.724169         2.695712
 H        -4.574675        -0.203397         1.363581
 H        -1.199270        -1.746038         2.227282
 H        -2.531651        -2.338277         1.009959
 H        -0.256988        -2.305730        -0.271114
 H        -1.416640        -0.961010        -0.784059
 H        -0.207542         2.147937         0.297088
 H        -1.181586         1.363910        -0.985654
 H        -2.590933         2.019793         0.718140
