19
Iteration:   648
 C        -3.880873        -0.330660         1.994347
 C        -2.505949        -0.105878         1.562846
 C        -1.685646        -1.283052         1.246541
 C        -0.666180        -1.300732         0.122363
 C         0.118896         0.034336         0.117833
 O         1.335241         0.067768        -0.020515
 C        -0.868487         1.279750         0.140888
 C        -2.005580         1.206645         1.044016
 O        -1.726849         0.996479         2.430245
 H        -3.863550        -1.241592         2.615433
 H        -4.336005         0.428305         2.774110
 H        -4.480178        -0.490547         1.083890
 H        -1.059047        -1.541853         2.124674
 H        -2.485767        -2.126758         1.181016
 H         0.033284        -2.089208         0.192766
 H        -1.139351        -1.309269        -0.832582
 H        -0.408821         2.207793         0.315842
 H        -1.179504         1.294883        -0.947954
 H        -2.727734         2.121782         0.985433
