19
Iteration:  2982charge 0 multiplicity 1
 C        -3.962312        -0.339410         1.858004
 C        -2.488290        -0.090347         1.585436
 C        -1.766342        -1.293010         1.196085
 C        -0.527418        -1.233348         0.363482
 C         0.081533         0.136751         0.150570
 O         1.260641         0.284630        -0.091242
 C        -0.966918         1.223268         0.077241
 C        -2.037001         1.227082         1.140379
 O        -1.507379         0.720665         2.394149
 H        -3.916338        -1.338789         2.446486
 H        -4.356496         0.419342         2.424866
 H        -4.326648        -0.494138         0.813761
 H        -1.504299        -1.750828         2.228560
 H        -2.424039        -2.186733         0.881920
 H         0.317772        -1.811963         0.853567
 H        -0.904047        -1.575707        -0.636021
 H        -0.433724         2.249947        -0.016817
 H        -1.701656         0.969428        -0.836450
 H        -2.636165         2.152753         1.331979
