19
Iteration:  4518
 C        -3.950937        -0.447943         1.841563
 C        -2.430051        -0.171105         1.622996
 C        -1.305444        -1.244028         1.486112
 C        -0.680466        -1.219539         0.120076
 C        -0.025983         0.120971         0.015063
 O         1.198882         0.125107        -0.270188
 C        -0.840802         1.378287         0.332649
 C        -2.062939         1.116278         1.102548
 O        -1.815545         0.906977         2.439914
 H        -4.224868        -1.593449         1.786956
 H        -4.258655        -0.069088         2.806357
 H        -4.375621        -0.089133         0.892755
 H        -0.560579        -0.983921         2.291510
 H        -1.739333        -2.165558         1.594794
 H         0.165343        -1.838203         0.037310
 H        -1.420249        -1.542560        -0.630025
 H        -0.178339         1.925739         0.927693
 H        -0.914171         1.956455        -0.680065
 H        -2.917637         1.776368         0.793439
