19
Iteration:  1611charge 0 multiplicity 1
 C        -3.670903        -0.342730         0.761901
 C        -2.358560        -0.005042         1.519725
 C        -1.438743        -1.193673         1.900018
 C        -0.298018        -1.380621         0.830885
 C         0.032244        -0.063782         0.130171
 O         0.080785         0.064182        -1.081771
 C        -0.243658         1.224617         0.835250
 C        -1.659960         1.277188         1.287728
 O        -2.173423         0.971857         2.625600
 H        -4.228447        -0.920928         1.419135
 H        -4.245638         0.568395         0.336841
 H        -3.393574        -0.911889        -0.070776
 H        -1.087704        -1.045840         2.917234
 H        -2.014634        -2.042913         2.002962
 H         0.600152        -1.653150         1.460378
 H        -0.650206        -2.168618         0.161296
 H         0.521196         1.436062         1.694006
 H        -0.018605         2.151366         0.157048
 H        -2.247042         2.103518         0.804114
