19
Iteration:  2833
 C        -3.736666        -0.179889         2.217981
 C        -2.351878        -0.123611         1.613066
 C        -1.649477        -1.406864         1.067000
 C        -0.545195        -1.278945        -0.008510
 C        -0.031117         0.111214         0.114513
 O         1.134966         0.303189         0.561874
 C        -1.094443         1.155494        -0.242963
 C        -2.045207         1.164471         0.971978
 O        -1.544327         0.830369         2.345882
 H        -3.814936        -0.867013         3.061201
 H        -4.017231         0.840383         2.407596
 H        -4.383170        -0.529200         1.321734
 H        -1.131580        -2.042546         1.841177
 H        -2.448073        -2.073147         0.679016
 H         0.174378        -2.047189         0.002939
 H        -0.911301        -1.224750        -1.045602
 H        -0.656895         2.176539        -0.541512
 H        -1.767832         0.753192        -1.059319
 H        -2.882933         1.864620         0.827641
