19
Iteration:  4856charge 0 multiplicity 1
 C        -3.777020        -0.484008         1.327832
 C        -2.374854        -0.109299         1.577662
 C        -1.269317        -1.271091         1.771028
 C        -0.350019        -1.331396         0.575336
 C        -0.143469         0.091069        -0.000360
 O         0.556291         0.127915        -1.009280
 C        -0.426398         1.323913         0.861656
 C        -1.892233         1.296835         1.192198
 O        -2.186194         0.920130         2.491768
 H        -3.981092        -1.500092         1.800204
 H        -4.341721         0.336871         1.617089
 H        -3.955851        -0.555393         0.226746
 H        -0.660459        -0.956876         2.717108
 H        -1.717510        -2.250471         1.929463
 H         0.638351        -1.644225         0.834106
 H        -0.563977        -2.037703        -0.250496
 H         0.346733         1.479460         1.572923
 H        -0.264549         2.335395         0.197120
 H        -2.511043         2.117675         0.738932
