19
Iteration:  1783charge 0 multiplicity 1
 C        -3.850318        -0.480362         1.312844
 C        -2.365355        -0.025045         1.653834
 C        -1.411718        -1.171919         1.766551
 C        -0.637184        -1.329614         0.467444
 C         0.097983        -0.005031         0.112080
 O         0.843178        -0.045875        -0.826957
 C        -0.444099         1.353468         0.714514
 C        -1.902116         1.254802         1.096926
 O        -2.135681         1.038597         2.505763
 H        -4.357864        -0.826376         2.234308
 H        -4.349730         0.529620         1.022869
 H        -3.822683        -1.190735         0.510693
 H        -0.696854        -1.022892         2.655402
 H        -1.899128        -2.228089         2.015365
 H         0.023368        -2.223053         0.320568
 H        -1.196701        -1.443090        -0.447924
 H         0.129638         1.473613         1.584448
 H        -0.302046         2.162838        -0.054056
 H        -2.564262         2.014389         0.584006
