19
Iteration:  2740
 C        -4.020600        -0.407802         2.054127
 C        -2.468887        -0.084143         1.685659
 C        -1.715412        -1.405119         1.259447
 C        -0.442438        -1.282612         0.267192
 C         0.193628         0.055095         0.032880
 O         1.402528         0.257733        -0.324579
 C        -0.724725         1.245871         0.228495
 C        -2.066226         1.223023         1.046589
 O        -1.993606         0.979065         2.486326
 H        -3.963056        -0.986592         3.035976
 H        -4.599850         0.645380         2.176302
 H        -4.407999        -0.974895         1.212599
 H        -1.574772        -2.081290         2.112293
 H        -2.447033        -1.975138         0.646942
 H         0.309044        -2.120847         0.547080
 H        -0.773340        -1.568226        -0.790838
 H        -0.170563         2.156175         0.406313
 H        -0.963892         1.311496        -0.846770
 H        -2.857947         1.968532         0.811379
