19
Iteration:  1468charge 0 multiplicity 1
 C        -3.990655        -0.391564         1.555084
 C        -2.466635        -0.041717         1.671551
 C        -1.463434        -1.234080         1.614747
 C        -0.711202        -1.331454         0.297682
 C         0.107075        -0.066376         0.019648
 O         1.171852         0.051528        -0.563322
 C        -0.585802         1.293236         0.445496
 C        -1.925205         1.281394         1.153578
 O        -2.018679         0.984591         2.563859
 H        -4.338062        -0.994063         2.380419
 H        -4.565640         0.545087         1.350817
 H        -4.077079        -0.975589         0.657869
 H        -0.713398        -0.957647         2.394323
 H        -1.838791        -2.178122         1.959035
 H         0.114939        -2.070037         0.292063
 H        -1.428639        -1.477108        -0.512353
 H         0.260125         1.895294         0.943807
 H        -0.604856         1.807057        -0.575253
 H        -2.686507         1.997533         0.794116
