19
Iteration:   509
 C        -3.745990        -0.558970         1.267387
 C        -2.392522        -0.044109         1.619699
 C        -1.395958        -1.168247         1.805961
 C        -0.707804        -1.325916         0.454310
 C         0.086750        -0.014171         0.037047
 O         0.724360         0.080239        -0.993059
 C        -0.326241         1.185047         0.964903
 C        -1.769519         1.206209         1.149268
 O        -2.229347         1.161692         2.505780
 H        -4.203869        -1.180271         1.999292
 H        -4.547011         0.326559         1.108861
 H        -3.694751        -0.922338         0.261268
 H        -0.630721        -0.833743         2.471821
 H        -1.911656        -2.020640         2.200999
 H        -0.048006        -2.190922         0.444071
 H        -1.534406        -1.527057        -0.360230
 H         0.172798         1.284842         2.001388
 H        -0.102792         2.158452         0.391798
 H        -2.279346         1.966486         0.464774
