19
Iteration:  1306charge 0 multiplicity 1
 C        -3.742890        -0.186908         2.304840
 C        -2.418400        -0.043366         1.545981
 C        -1.999675        -1.416302         0.848316
 C        -0.567475        -1.345561         0.139152
 C        -0.015073         0.060143         0.174540
 O         1.066725         0.444530         0.588036
 C        -1.046889         1.138038        -0.177146
 C        -1.874816         1.203072         1.003330
 O        -1.278713         0.733045         2.175907
 H        -3.680039        -0.851503         3.152056
 H        -4.415364         0.749854         2.468158
 H        -4.427181        -0.719764         1.647332
 H        -2.013629        -2.267004         1.641161
 H        -2.884073        -1.696349         0.188584
 H         0.099886        -2.083529         0.600602
 H        -0.614121        -1.545463        -0.957737
 H        -0.490793         2.002644        -0.284182
 H        -1.534727         0.832493        -1.103687
 H        -2.495406         2.121108         1.162896
