19
Iteration:  2233charge 0 multiplicity 1
 C        -4.031387        -0.299981         1.602725
 C        -2.506303        -0.096462         1.680287
 C        -1.830590        -1.292598         1.175885
 C        -0.268853        -1.192725         0.853958
 C         0.122057         0.070667         0.135468
 O         0.942315         0.132271        -0.787949
 C        -0.607926         1.336448         0.427061
 C        -1.900844         1.156835         1.167160
 O        -1.751877         0.776577         2.539581
 H        -4.297058        -1.307774         2.056049
 H        -4.598199         0.418247         2.143545
 H        -4.485063        -0.451931         0.571927
 H        -1.953618        -2.137303         1.816516
 H        -2.233502        -1.490333         0.203170
 H         0.394840        -1.170440         1.723118
 H         0.033301        -2.100724         0.268809
 H        -0.078730         1.992050         0.936044
 H        -0.799697         1.857149        -0.548036
 H        -2.594849         1.945235         1.071448
