19
Iteration:  4543
 C        -3.787718        -0.535457         1.750212
 C        -2.375580        -0.127825         1.709364
 C        -1.432521        -1.346632         1.578214
 C        -0.800186        -1.304307         0.164398
 C         0.090198         0.035123         0.046803
 O         1.196139         0.318933        -0.411072
 C        -0.736742         1.317497         0.318327
 C        -2.005774         1.176885         1.078323
 O        -1.987452         0.975975         2.514911
 H        -4.054217        -1.632792         1.620062
 H        -4.131306        -0.164158         2.742349
 H        -4.263378        -0.073523         0.841132
 H        -0.634391        -1.218436         2.333677
 H        -2.081322        -2.245441         1.684584
 H        -0.260636        -2.217562        -0.164289
 H        -1.609366        -1.049467        -0.542402
 H         0.053652         1.958437         0.755747
 H        -0.870206         1.669239        -0.692594
 H        -2.759421         1.963425         0.803157
