19
Iteration:  4159charge 0 multiplicity 1
 C        -3.972613        -0.384093         1.949569
 C        -2.468149        -0.178754         1.669160
 C        -1.759553        -1.417244         1.010995
 C        -0.222232        -1.183406         0.705324
 C         0.061593         0.173450         0.105453
 O         1.015341         0.305144        -0.659874
 C        -0.788771         1.417150         0.297690
 C        -2.014993         1.149635         1.172780
 O        -1.712723         0.684000         2.468951
 H        -4.166619        -1.419059         2.312008
 H        -4.517494         0.270879         2.648933
 H        -4.481011        -0.325013         1.016555
 H        -1.906119        -2.322345         1.619202
 H        -2.277270        -1.630538         0.032316
 H         0.343514        -1.308386         1.619165
 H         0.129489        -1.877956        -0.106290
 H        -0.277392         2.033195         1.060264
 H        -0.801044         2.102525        -0.617313
 H        -2.760683         2.012835         1.313737
