19
Iteration:  1824charge 0 multiplicity 1
 C        -3.927858        -0.533809         1.653748
 C        -2.484381        -0.044419         1.742077
 C        -1.435495        -1.177329         1.604767
 C        -0.793902        -1.287008         0.194553
 C         0.103981        -0.056995        -0.096728
 O         1.239546        -0.027075        -0.555743
 C        -0.435285         1.331132         0.590885
 C        -1.908184         1.222255         1.047164
 O        -2.192460         1.154926         2.509597
 H        -4.146616        -1.376570         2.356386
 H        -4.569241         0.230668         1.890974
 H        -4.256359        -0.815824         0.621222
 H        -0.640580        -1.161095         2.385718
 H        -1.819387        -2.219586         1.894095
 H        -0.199120        -2.186711         0.137632
 H        -1.705473        -1.299135        -0.501110
 H         0.236158         1.584028         1.451803
 H        -0.251920         2.172622        -0.117174
 H        -2.685257         1.870590         0.560345
