19
Iteration:  4483charge 0 multiplicity 1
 C        -3.859426        -0.507192         2.014422
 C        -2.438616        -0.159946         1.651311
 C        -1.498961        -1.282016         1.374640
 C        -0.733776        -1.238794         0.068827
 C         0.117708         0.132444         0.088250
 O         1.305150         0.220468        -0.227667
 C        -0.765309         1.326153         0.158635
 C        -2.000560         1.174061         1.036882
 O        -1.952831         0.904562         2.529499
 H        -3.781298        -1.580230         2.231350
 H        -4.317589         0.121047         2.824113
 H        -4.522403        -0.312097         1.172022
 H        -0.919015        -1.550149         2.249779
 H        -2.156934        -2.162345         1.338932
 H        -0.018580        -2.085229        -0.094874
 H        -1.420580        -1.215489        -0.812245
 H        -0.232339         2.272075         0.422205
 H        -1.203530         1.540783        -0.891473
 H        -2.761798         1.924034         0.809669
