19
Iteration:  2447charge 0 multiplicity 1
 C        -4.024183        -0.502065         1.404310
 C        -2.526654        -0.092009         1.490786
 C        -1.536288        -1.285851         1.652172
 C        -0.344251        -1.211442         0.736708
 C         0.071030         0.083947        -0.006139
 O         0.763348         0.139675        -1.055816
 C        -0.337693         1.324498         0.737518
 C        -1.837286         1.215623         1.205448
 O        -2.068893         0.917172         2.534254
 H        -4.136915        -1.385583         2.069721
 H        -4.538195         0.407036         1.889349
 H        -4.332540        -0.703832         0.369137
 H        -1.256767        -1.284963         2.744565
 H        -2.131887        -2.221448         1.400522
 H         0.676115        -1.520050         1.210886
 H        -0.449198        -2.043005        -0.008830
 H         0.182938         1.375315         1.633167
 H        -0.139265         2.194198         0.189954
 H        -2.435216         2.168531         0.956486
