19
Iteration:  2747charge 0 multiplicity 1
 C        -3.926608        -0.400618         2.060363
 C        -2.495452        -0.120418         1.652900
 C        -1.693377        -1.418611         1.249903
 C        -0.477385        -1.301068         0.259448
 C         0.243523         0.076030         0.074915
 O         1.368201         0.223923        -0.263067
 C        -0.783529         1.299953         0.159127
 C        -2.040304         1.214859         1.019391
 O        -1.988893         0.972625         2.502607
 H        -4.053459        -0.951544         2.941579
 H        -4.269759         0.588031         2.247816
 H        -4.599798        -0.810797         1.290269
 H        -1.507643        -2.200098         2.025616
 H        -2.511131        -1.872971         0.714824
 H         0.225767        -1.969991         0.593038
 H        -0.860136        -1.467062        -0.758749
 H        -0.270167         2.229688         0.358279
 H        -1.204560         1.482071        -0.892444
 H        -2.780821         1.916897         0.728055
