19
Iteration:  4475charge 0 multiplicity 1
 C        -3.837414        -0.546908         2.003209
 C        -2.440654        -0.133591         1.660277
 C        -1.557869        -1.300335         1.333877
 C        -0.712572        -1.206143         0.059572
 C         0.135508         0.093364         0.125168
 O         1.283999         0.269919        -0.222053
 C        -0.774859         1.252434         0.208591
 C        -2.028424         1.159630         1.077041
 O        -1.879058         0.965960         2.457443
 H        -4.114864        -1.601644         2.420503
 H        -4.221277         0.147761         2.752073
 H        -4.531453        -0.522273         1.140171
 H        -0.872857        -1.536430         2.209245
 H        -2.208765        -2.096987         1.175229
 H        -0.175626        -2.097505         0.016419
 H        -1.399957        -0.984702        -0.748874
 H        -0.273159         2.145437         0.378063
 H        -1.175771         1.241151        -0.850703
 H        -2.750643         2.002568         0.921077
