19
Iteration:   835charge 0 multiplicity 1
 C        -3.977611        -0.171347         2.172193
 C        -2.570736        -0.129397         1.559256
 C        -1.977450        -1.316659         0.816168
 C        -0.452063        -1.184332         0.585178
 C         0.098782         0.143247         0.059508
 O         1.300770         0.342334         0.019617
 C        -0.982331         1.180094        -0.073314
 C        -1.937642         1.177485         1.136154
 O        -1.414798         0.543122         2.322020
 H        -4.031280        -0.979622         2.934155
 H        -4.094672         0.774040         2.855626
 H        -4.893474        -0.179303         1.564829
 H        -2.091129        -2.137602         1.496876
 H        -2.616602        -1.561643        -0.055717
 H         0.146623        -1.231497         1.469528
 H        -0.194158        -2.064314        -0.095833
 H        -0.492317         2.123686        -0.122956
 H        -1.555345         0.905819        -1.037267
 H        -2.593280         2.074470         1.250742
