19
Iteration:   613charge 0 multiplicity 1
 C        -3.904716        -0.346748         1.811018
 C        -2.479271        -0.051232         1.630900
 C        -1.652671        -1.366934         1.507933
 C        -0.665516        -1.304887         0.319502
 C         0.099091         0.049461         0.042475
 O         1.258475         0.083324        -0.377682
 C        -0.643689         1.423974         0.239579
 C        -1.958515         1.195825         1.040863
 O        -1.901821         0.909519         2.463722
 H        -4.035226        -1.220257         2.508137
 H        -4.456185         0.536532         2.143545
 H        -4.453111        -0.777465         0.853272
 H        -1.143859        -1.461959         2.484869
 H        -2.288145        -2.271798         1.425995
 H         0.057651        -2.150479         0.377638
 H        -1.246275        -1.511798        -0.577458
 H        -0.041753         2.031353         0.835723
 H        -0.910364         1.947190        -0.680585
 H        -2.571661         2.085336         0.928782
