19
Iteration:  4172
 C        -3.989877        -0.399350         2.024718
 C        -2.534109        -0.175934         1.568336
 C        -1.795574        -1.464665         1.026305
 C        -0.309254        -1.235515         0.658924
 C         0.121211         0.175384         0.108564
 O         1.096193         0.427747        -0.625813
 C        -0.761983         1.367688         0.371426
 C        -2.072064         1.196246         1.107961
 O        -1.663518         0.679785         2.471204
 H        -4.191036        -1.493131         2.349416
 H        -4.077112         0.273058         2.830788
 H        -4.689905        -0.065675         1.263060
 H        -1.829931        -2.197873         1.755178
 H        -2.415651        -1.844594         0.136117
 H         0.324407        -1.385098         1.523953
 H         0.123379        -2.028341         0.026094
 H        -0.039023         2.196732         0.630273
 H        -1.093513         1.534415        -0.668753
 H        -2.782361         2.012555         1.009111
