19
Iteration:  1768charge 0 multiplicity 1
 C        -3.842425        -0.349415         1.251069
 C        -2.459278        -0.062040         1.611426
 C        -1.393707        -1.212307         1.811430
 C        -0.555676        -1.422401         0.526143
 C        -0.003307        -0.030425        -0.022335
 O         0.852381         0.080678        -0.911312
 C        -0.406771         1.257650         0.725543
 C        -1.856914         1.223146         1.188767
 O        -2.179952         1.085513         2.569497
 H        -4.473542        -0.704648         2.083547
 H        -4.325185         0.377623         0.752299
 H        -3.797658        -1.282107         0.601301
 H        -0.688699        -0.770261         2.501103
 H        -1.916290        -2.077573         2.268383
 H         0.323695        -1.980908         0.807214
 H        -1.133250        -2.070541        -0.235889
 H         0.236327         1.382093         1.656073
 H        -0.096428         2.062122         0.086129
 H        -2.545793         1.845879         0.615909
