19
Iteration:   980
 C        -3.829237        -0.332694         1.221123
 C        -2.401128        -0.112995         1.542608
 C        -1.532413        -1.291792         1.240318
 C        -0.082965        -1.113379         0.972669
 C         0.022598         0.087132         0.153250
 O         0.192191         0.001568        -1.062425
 C        -0.306188         1.373076         0.811569
 C        -1.744257         1.210513         1.309673
 O        -2.037020         0.791848         2.654042
 H        -4.292304        -0.994732         1.996193
 H        -4.364267         0.588031         1.144281
 H        -4.012188        -0.928823         0.256205
 H        -1.889256        -2.110404         1.851029
 H        -1.901668        -1.637743         0.257491
 H         0.644671        -1.038643         1.806968
 H         0.211150        -1.910438         0.358207
 H         0.256870         1.572884         1.652346
 H        -0.158170         2.178149        -0.000371
 H        -2.380804         2.027614         0.973729
