19
Iteration:  4846
 C        -3.830166        -0.473591         1.330264
 C        -2.337377        -0.176241         1.592082
 C        -1.278681        -1.212114         1.785301
 C        -0.337679        -1.282648         0.527785
 C         0.018855         0.035476         0.086809
 O         0.505286         0.166186        -1.012529
 C        -0.413738         1.299353         0.843133
 C        -1.910275         1.275951         1.144043
 O        -2.159695         0.943852         2.502055
 H        -4.220257        -1.472093         1.653129
 H        -4.485626         0.152996         1.884867
 H        -4.103610        -0.446034         0.255204
 H        -0.740584        -0.959860         2.815639
 H        -1.842649        -2.134721         1.887378
 H         0.590429        -1.742240         0.755705
 H        -0.797628        -1.839048        -0.327515
 H         0.171308         1.412445         1.752690
 H        -0.251769         2.146625        -0.007045
 H        -2.660620         1.816397         0.552969
