19
Iteration:  3227
 C        -3.875524        -0.393942         1.343929
 C        -2.307741        -0.149247         1.530199
 C        -1.427989        -1.324329         1.456678
 C        -0.015756        -1.240480         0.841843
 C         0.129148         0.072390         0.103392
 O         0.355823         0.130793        -1.096648
 C        -0.380253         1.314986         0.911201
 C        -1.911249         1.209170         1.173200
 O        -2.266718         0.952813         2.501915
 H        -4.092533        -1.440922         1.470079
 H        -4.335956         0.162034         2.262568
 H        -4.281059        -0.062902         0.395983
 H        -1.376544        -1.586565         2.521654
 H        -2.060502        -2.144587         0.935313
 H         0.860043        -1.286308         1.497724
 H         0.019832        -2.073359         0.184907
 H         0.026959         1.588817         1.959457
 H        -0.126670         2.136966         0.237544
 H        -2.474494         1.794383         0.487247
