19
Iteration:  3207charge 0 multiplicity 1
 C        -3.915521        -0.464443         1.296589
 C        -2.375591        -0.143869         1.595095
 C        -1.512544        -1.446948         1.466100
 C        -0.035186        -1.136732         0.970360
 C        -0.007664         0.126668         0.053935
 O         0.365167         0.151308        -1.112452
 C        -0.313560         1.339422         0.789971
 C        -1.800532         1.192024         1.169934
 O        -2.189719         0.941085         2.536483
 H        -3.887558        -1.466914         1.484492
 H        -4.425132         0.211232         2.004766
 H        -4.161228        -0.184984         0.296954
 H        -1.719977        -2.029158         2.373157
 H        -1.959284        -1.939451         0.621744
 H         0.573094        -0.989935         1.893042
 H         0.430609        -1.953368         0.483201
 H         0.380480         1.366108         1.738627
 H         0.003368         2.204383         0.214866
 H        -2.405409         1.997413         0.763689
