19
Iteration:   466
 C        -3.697251        -0.366098         1.048802
 C        -2.369973        -0.053673         1.614064
 C        -1.345499        -1.158729         1.939704
 C        -0.463358        -1.369913         0.567952
 C         0.029442        -0.038038         0.010912
 O         0.435907         0.061553        -1.133638
 C        -0.221870         1.179843         1.061062
 C        -1.812676         1.175942         1.237780
 O        -2.315374         1.111698         2.520647
 H        -4.215610        -1.236100         1.437465
 H        -4.469018         0.542369         1.051026
 H        -3.626352        -0.503470        -0.060288
 H        -0.757212        -0.743227         2.714494
 H        -1.769343        -2.059371         2.250511
 H         0.411124        -2.008286         0.679899
 H        -1.049227        -1.879281        -0.305171
 H         0.352729         0.956227         1.987761
 H         0.126362         2.119713         0.550049
 H        -2.249095         1.896606         0.508595
