19
Iteration:  1003
 C        -3.809476        -0.286264         1.070489
 C        -2.364746        -0.065640         1.409732
 C        -1.567996        -1.464813         1.368116
 C        -0.024240        -1.042094         1.087107
 C         0.040227         0.102773         0.039184
 O         0.000377        -0.039573        -1.179399
 C        -0.246395         1.448158         0.901018
 C        -1.672821         1.347857         1.380640
 O        -2.052733         0.648134         2.659487
 H        -4.224054        -1.122510         1.653568
 H        -4.429184         0.669027         1.141849
 H        -3.906565        -0.679504         0.007510
 H        -1.672924        -1.910205         2.419285
 H        -1.949151        -2.338959         0.751383
 H         0.415706        -0.703179         2.044126
 H         0.493921        -1.982113         0.836419
 H         0.469137         1.533308         1.694412
 H        -0.198035         2.359500         0.274867
 H        -2.309232         2.231896         1.182537
