19
Iteration:  3556
 C        -3.798141        -0.514063         2.204603
 C        -2.453385        -0.158772         1.609238
 C        -1.613042        -1.371905         1.225604
 C        -0.635498        -1.211967         0.067280
 C         0.016740         0.125475         0.163309
 O         1.238142         0.339530         0.204289
 C        -0.933393         1.310398         0.075561
 C        -2.178980         1.184533         0.963100
 O        -1.592078         0.869728         2.186915
 H        -3.464792        -1.510163         2.685831
 H        -4.211209         0.375125         2.658807
 H        -4.345720        -0.895472         1.223354
 H        -0.888777        -1.638807         2.033108
 H        -2.485895        -2.046928         0.963218
 H         0.203624        -1.947462         0.119214
 H        -1.098484        -1.092854        -1.039271
 H        -0.363043         2.202379         0.253877
 H        -1.271396         1.303134        -1.008749
 H        -3.104981         1.831806         0.945669
