19
Iteration:   744
 C        -3.635694        -0.298663         2.414913
 C        -2.409138        -0.058934         1.566334
 C        -1.992533        -1.381338         0.914423
 C        -0.715829        -1.320639         0.031030
 C         0.083361         0.122888         0.067576
 O         1.089923         0.325005         0.727423
 C        -0.902322         1.133026        -0.308546
 C        -1.906794         1.166774         0.893926
 O        -1.460900         0.882466         2.233713
 H        -3.141574        -0.684921         3.365893
 H        -4.393872         0.587327         2.421947
 H        -4.396566        -1.038588         1.998904
 H        -1.788954        -2.005034         1.782791
 H        -2.797736        -1.784939         0.354329
 H        -0.036868        -2.165440         0.385136
 H        -1.025220        -1.577425        -1.103664
 H        -0.623247         2.299284        -0.329415
 H        -1.405722         0.940584        -1.297596
 H        -2.541616         2.045222         0.897279
