19
Iteration:  4494
 C        -3.898091        -0.459679         1.967673
 C        -2.424891        -0.090526         1.646660
 C        -1.455774        -1.381098         1.451102
 C        -0.657655        -1.194578         0.096444
 C         0.079527         0.116965        -0.095526
 O         1.304952         0.127489        -0.201158
 C        -0.793501         1.473747         0.162935
 C        -2.034881         1.175571         1.054019
 O        -1.981977         0.846307         2.557507
 H        -3.977313        -1.549400         2.174660
 H        -4.128169        -0.007215         2.955334
 H        -4.603878        -0.293199         1.160128
 H        -0.720641        -1.260061         2.239627
 H        -1.974297        -2.340608         1.457372
 H         0.130957        -1.980964        -0.022882
 H        -1.387878        -1.350023        -0.726199
 H        -0.089571         2.236095         0.546651
 H        -1.126218         1.801216        -0.887526
 H        -2.915877         1.765264         0.793699
