19
Iteration:  2320charge 0 multiplicity 1
 C        -3.853966        -0.254970         1.472437
 C        -2.400868        -0.094855         1.437042
 C        -1.628784        -1.361822         1.034735
 C        -0.135372        -1.077240         1.147987
 C         0.017005         0.053650         0.180659
 O         0.457855        -0.043513        -0.931616
 C        -0.536347         1.450296         0.653100
 C        -1.847921         1.231485         1.230517
 O        -1.864618         0.704663         2.547954
 H        -4.137781        -0.683284         2.458856
 H        -4.237467         0.688084         1.334579
 H        -4.168991        -1.006344         0.696633
 H        -1.952535        -2.183944         1.632066
 H        -1.828542        -1.642554         0.017456
 H         0.303663        -0.810431         2.073072
 H         0.282111        -1.972315         0.664707
 H         0.155617         1.946054         1.411927
 H        -0.537579         2.032221        -0.323141
 H        -2.609106         1.968364         1.066368
