19
Iteration:  3685charge 0 multiplicity 1
 C        -3.758854        -0.479088         2.329587
 C        -2.460242        -0.139644         1.611646
 C        -1.831443        -1.375756         0.988962
 C        -0.455400        -1.228947         0.038485
 C         0.069998         0.123585         0.105965
 O         1.239989         0.474579         0.275671
 C        -1.036295         1.268128        -0.000241
 C        -2.092687         1.189958         1.015543
 O        -1.591197         0.757449         2.259795
 H        -3.540021        -0.598331         3.425369
 H        -4.377936         0.402768         2.360381
 H        -4.410140        -1.280299         1.914703
 H        -1.561918        -2.032536         1.810650
 H        -2.461778        -2.053155         0.314745
 H         0.282585        -1.926123         0.464626
 H        -0.585345        -1.538046        -0.965608
 H        -0.424166         2.232181        -0.037474
 H        -1.508074         1.081794        -1.014837
 H        -2.853877         1.996156         0.879180
