19
Iteration:  1393
 C        -3.772006        -0.354245         2.064430
 C        -2.415468        -0.100620         1.573021
 C        -1.691044        -1.335114         1.293851
 C        -0.805295        -1.237119         0.042601
 C         0.082106         0.011803         0.098922
 O         1.285831         0.124089         0.224383
 C        -0.807264         1.267330         0.094996
 C        -2.108451         1.158623         0.920523
 O        -1.684709         1.000617         2.300198
 H        -3.668616        -1.117184         2.846551
 H        -4.124515         0.669292         2.574997
 H        -4.346513        -0.815396         1.266407
 H        -0.983231        -1.590495         2.161081
 H        -2.454394        -2.138468         1.110009
 H        -0.270236        -2.181422        -0.001516
 H        -1.432648        -1.004262        -0.826320
 H        -0.206951         2.013192         0.454886
 H        -0.886331         1.564521        -0.968336
 H        -2.876596         1.963535         0.725870
