19
Iteration:  3923
 C        -3.920515        -0.443241         1.404631
 C        -2.382290        -0.206002         1.508785
 C        -1.527395        -1.413493         1.339563
 C        -0.008638        -0.958822         0.863756
 C         0.039901         0.230462         0.001645
 O         0.442320         0.062928        -1.180521
 C        -0.416204         1.506866         0.712556
 C        -1.846120         1.218776         1.409895
 O        -2.159621         0.632807         2.680563
 H        -4.203499        -1.094532         2.264645
 H        -4.392465         0.493151         1.482715
 H        -4.093839        -0.826881         0.426637
 H        -1.437233        -2.038415         2.285197
 H        -1.873122        -1.995073         0.515186
 H         0.620807        -0.756390         1.756190
 H         0.338244        -1.910203         0.420965
 H         0.335642         1.778948         1.531606
 H        -0.405157         2.335766         0.079983
 H        -2.563341         1.943489         1.110266
