19
Iteration:   815
 C        -3.761779        -0.158704         2.321613
 C        -2.504920        -0.117687         1.575133
 C        -2.016603        -1.412523         0.868177
 C        -0.553967        -1.270497         0.500108
 C         0.033247         0.202714         0.149936
 O         1.223839         0.377686         0.223573
 C        -0.923392         1.289461        -0.185524
 C        -1.915556         1.164600         0.917606
 O        -1.485443         0.521783         2.223822
 H        -3.766324        -1.044202         2.959201
 H        -4.077203         0.718083         2.849003
 H        -4.593535        -0.230966         1.621960
 H        -2.248804        -2.224620         1.586192
 H        -2.643674        -1.599495        -0.060039
 H         0.014857        -1.691555         1.325520
 H        -0.355193        -1.855095        -0.345384
 H        -0.439331         2.156177        -0.111635
 H        -1.353141         1.234431        -1.173120
 H        -2.470618         2.059394         1.217595
