19
Iteration:   845
 C        -3.970739        -0.159118         2.126859
 C        -2.536321        -0.089125         1.558629
 C        -1.936524        -1.312983         0.811761
 C        -0.420973        -1.250168         0.623347
 C         0.127051         0.137679         0.065009
 O         1.329730         0.326867        -0.116515
 C        -1.038900         1.163650         0.026323
 C        -1.952847         1.190266         1.213433
 O        -1.486095         0.585577         2.368440
 H        -4.148822        -1.066226         2.751771
 H        -4.173180         0.873600         2.689831
 H        -4.690364        -0.198725         1.269042
 H        -2.208002        -2.188220         1.360493
 H        -2.356308        -1.446398        -0.191274
 H        -0.045665        -1.466019         1.606146
 H        -0.020936        -2.171062        -0.009837
 H        -0.712296         2.182173        -0.339557
 H        -1.718760         0.857647        -0.894839
 H        -2.500981         2.143957         1.413883
