19
Iteration:  3102charge 0 multiplicity 1
 C        -4.048283        -0.400563         1.611554
 C        -2.509523        -0.098062         1.476732
 C        -1.687330        -1.342807         1.011153
 C        -0.103431        -0.993536         1.084971
 C         0.095481         0.105910         0.083747
 O         0.820642        -0.036714        -0.908992
 C        -0.638445         1.478587         0.493161
 C        -1.896873         1.297180         1.297943
 O        -1.843872         0.611361         2.559802
 H        -4.332892        -0.642508         2.721026
 H        -4.610265         0.505547         1.573240
 H        -4.374722        -1.187115         0.878296
 H        -1.941059        -2.280421         1.617094
 H        -1.996628        -1.570055        -0.060530
 H         0.010978        -0.621604         2.151667
 H         0.498362        -1.850068         0.736019
 H         0.108847         1.853008         1.126571
 H        -0.846678         2.089392        -0.398747
 H        -2.542434         2.219168         1.299140
