19
Iteration:  1941charge 0 multiplicity 1
 C        -3.913861        -0.121642         2.052788
 C        -2.489455        -0.098186         1.473959
 C        -1.691502        -1.398656         1.244289
 C        -0.557256        -1.335034         0.165548
 C         0.046948        -0.000122         0.031584
 O         1.238248         0.300717         0.146774
 C        -0.901204         1.253153        -0.077666
 C        -1.897817         1.199872         1.072010
 O        -1.700595         0.749113         2.431879
 H        -3.866406        -0.819164         2.960544
 H        -4.256010         0.794942         2.446407
 H        -4.823807        -0.533585         1.433437
 H        -1.345898        -1.689452         2.242812
 H        -2.442736        -2.139408         1.055217
 H         0.208583        -1.991057         0.540501
 H        -0.950446        -1.688292        -0.759244
 H        -0.154816         2.124474         0.117787
 H        -1.304046         1.473110        -1.019633
 H        -2.656783         1.962997         0.966918
