19
Iteration:   397
 C        -3.818645        -0.170000         1.061871
 C        -2.407753        -0.078222         1.587148
 C        -1.471751        -1.312987         1.665451
 C        -0.069519        -1.253616         0.841500
 C         0.092605         0.027356         0.107284
 O         0.134178         0.007359        -1.126375
 C        -0.159434         1.206012         0.965587
 C        -1.764101         1.150231         1.155980
 O        -2.244764         0.995107         2.545915
 H        -4.547708        -0.540475         1.835914
 H        -4.114542         0.873646         0.656029
 H        -3.874845        -0.876795         0.277974
 H        -1.357747        -1.562399         2.730329
 H        -1.920288        -2.196375         1.201127
 H         0.821518        -1.311989         1.519312
 H         0.049725        -2.117184         0.174997
 H         0.218773         1.165653         2.056045
 H         0.128291         2.125989         0.422789
 H        -2.347506         1.859478         0.560913
