19
Iteration:  2498
 C        -3.952461        -0.397275         1.392284
 C        -2.455186        -0.097516         1.647997
 C        -1.482175        -1.392206         1.682877
 C        -0.356932        -1.342130         0.541764
 C         0.125564         0.065859         0.028258
 O         0.805944         0.236106        -0.942625
 C        -0.461865         1.303688         0.682546
 C        -1.862416         1.141639         1.204198
 O        -2.147893         1.020373         2.570306
 H        -4.401742        -0.414776         2.361173
 H        -4.441754         0.462042         0.809504
 H        -3.979538        -1.305055         0.867932
 H        -1.012209        -1.410801         2.677597
 H        -2.089381        -2.284242         1.600441
 H         0.394727        -2.104746         0.477197
 H        -0.827341        -1.655286        -0.401033
 H         0.221795         1.632795         1.597200
 H        -0.356289         2.213918        -0.025630
 H        -2.562046         1.670205         0.608725
