19
Iteration:  2633
 C        -3.932767        -0.492213         1.521345
 C        -2.500408        -0.047615         1.615914
 C        -1.490456        -1.218126         1.597946
 C        -0.530865        -1.353913         0.330414
 C         0.133685        -0.002642        -0.092635
 O         1.129495         0.162040        -0.724151
 C        -0.554644         1.296929         0.475141
 C        -1.910635         1.273272         1.276514
 O        -2.185214         0.983555         2.686753
 H        -4.091981        -1.495692         2.054905
 H        -4.606032         0.183928         2.094386
 H        -4.496031        -0.698620         0.569538
 H        -0.822577        -1.020353         2.470311
 H        -1.909569        -2.298121         1.704367
 H         0.302667        -2.044387         0.775237
 H        -0.908874        -1.743608        -0.611724
 H         0.367247         1.748683         1.185980
 H        -0.634402         1.926429        -0.389563
 H        -2.738818         1.936852         0.828549
