19
Iteration:   566
 C        -3.949542        -0.261428         1.602155
 C        -2.414532        -0.091861         1.633116
 C        -1.466630        -1.306004         1.621379
 C        -0.572518        -1.340742         0.320723
 C         0.104792         0.026390        -0.034120
 O         1.097086         0.048041        -0.722149
 C        -0.479481         1.361723         0.579626
 C        -1.965252         1.191871         1.125162
 O        -2.173133         0.946610         2.603289
 H        -4.475045        -0.444379         2.567075
 H        -4.284682         0.609808         1.106357
 H        -4.358639        -1.162814         0.994697
 H        -0.780947        -1.166979         2.450397
 H        -2.014697        -2.144250         1.866102
 H         0.258752        -2.105149         0.317370
 H        -1.204560        -1.642393        -0.583026
 H         0.184860         1.688129         1.425820
 H        -0.378820         2.048355        -0.223881
 H        -2.673433         1.730109         0.583676
