19
Iteration:  1247charge 0 multiplicity 1
 C        -3.861686        -0.187336         2.290844
 C        -2.504016        -0.155736         1.502466
 C        -2.060266        -1.294268         0.716875
 C        -0.497453        -1.365983         0.633756
 C         0.136611         0.088857         0.231963
 O         1.292401         0.449927         0.011669
 C        -0.979363         1.178256        -0.005494
 C        -2.064108         1.210519         1.029896
 O        -1.411655         0.607852         2.230149
 H        -4.157871        -1.102741         2.960142
 H        -3.783689         0.572738         3.000857
 H        -4.639850         0.044034         1.479597
 H        -2.354902        -2.269437         1.058547
 H        -2.422088        -1.165669        -0.303079
 H        -0.066082        -1.626588         1.656934
 H        -0.110172        -2.085671        -0.072225
 H        -0.522244         2.257361         0.009296
 H        -1.251539         0.981249        -1.007827
 H        -2.652099         2.061935         1.332417
