19
Iteration:  1328
 C        -3.671446        -0.161006         2.277796
 C        -2.325752        -0.106941         1.561489
 C        -1.897440        -1.427446         0.926462
 C        -0.657892        -1.330734         0.014648
 C        -0.035021         0.031783         0.271352
 O         1.109587         0.331664         0.594918
 C        -0.970608         1.233909        -0.159853
 C        -2.028948         1.173319         0.936485
 O        -1.388492         0.795529         2.188133
 H        -3.578122        -0.501613         3.310905
 H        -4.235705         0.888553         2.237070
 H        -4.494538        -0.766451         1.911965
 H        -1.725662        -2.289431         1.685241
 H        -2.751692        -1.836362         0.288318
 H         0.109132        -2.071882         0.184811
 H        -0.956440        -1.218915        -1.050279
 H        -0.490456         2.127141        -0.181305
 H        -1.375593         1.015680        -1.163912
 H        -2.824950         1.950575         1.115797
