19
Iteration:  4569charge 0 multiplicity 1
 C        -3.912394        -0.582093         1.736618
 C        -2.454563        -0.147521         1.765883
 C        -1.386511        -1.286732         1.534266
 C        -0.603814        -1.150244         0.181795
 C         0.104235         0.137567        -0.071805
 O         1.214331         0.033685        -0.517734
 C        -0.690901         1.421905         0.363686
 C        -2.018413         1.130671         1.139356
 O        -2.087093         1.021085         2.612057
 H        -4.064012        -1.605162         1.523735
 H        -4.262901        -0.307579         2.784876
 H        -4.542454        -0.095329         0.992766
 H        -0.645156        -1.207301         2.321881
 H        -1.982239        -2.280686         1.483518
 H         0.235854        -1.914052         0.085791
 H        -1.369827        -1.195080        -0.638521
 H         0.086149         2.173650         0.704721
 H        -1.001876         1.719376        -0.630016
 H        -2.795593         1.840333         0.854166
