19
Iteration:  2654
 C        -3.978711        -0.348837         1.563787
 C        -2.467206        -0.082718         1.714988
 C        -1.513406        -1.284626         1.585216
 C        -0.435371        -1.309176         0.407477
 C         0.159108         0.037339         0.006596
 O         1.098200         0.239209        -0.714765
 C        -0.682337         1.221320         0.483347
 C        -1.957734         1.174551         1.144359
 O        -2.004444         0.903583         2.577799
 H        -4.521461        -1.197985         2.050903
 H        -4.781646         0.427011         1.534775
 H        -4.110831        -0.743817         0.583252
 H        -1.132655        -1.328068         2.610669
 H        -2.128098        -2.221221         1.445648
 H         0.373318        -2.096126         0.617446
 H        -1.055768        -1.536550        -0.432753
 H         0.006354         1.967034         1.142503
 H        -0.876798         1.754387        -0.440161
 H        -2.616175         2.084968         0.991794
