19
Iteration:  3663
 C        -3.701985        -0.467244         2.336147
 C        -2.485463        -0.148212         1.569104
 C        -1.766372        -1.459068         1.044903
 C        -0.613407        -1.196070         0.104780
 C         0.010264         0.221785         0.045546
 O         1.107126         0.445833         0.474981
 C        -1.004950         1.389760        -0.268447
 C        -1.982486         1.148600         0.976227
 O        -1.493307         0.681108         2.283132
 H        -3.475098        -0.421691         3.430867
 H        -4.583432         0.171125         2.301509
 H        -4.087909        -1.441614         1.990282
 H        -1.397576        -2.168745         1.766025
 H        -2.477390        -2.112392         0.376610
 H         0.239449        -1.838986         0.381291
 H        -0.919495        -1.466714        -0.857987
 H        -0.425270         2.348840         0.042555
 H        -1.247557         1.383075        -1.365851
 H        -2.755839         1.934861         0.908882
