19
Iteration:  3712
 C        -3.767327        -0.390809         2.173148
 C        -2.398060        -0.237594         1.570102
 C        -1.806783        -1.463532         0.988539
 C        -0.426606        -1.181994         0.258796
 C         0.086336         0.196464         0.236057
 O         1.264102         0.421958        -0.007656
 C        -1.041531         1.314791         0.048896
 C        -2.099672         1.093118         1.025339
 O        -1.673603         0.799977         2.403901
 H        -3.651574        -0.976996         3.082305
 H        -4.013515         0.598619         2.678360
 H        -4.647245        -0.720109         1.588752
 H        -1.832810        -2.238958         1.818093
 H        -2.352921        -1.886916         0.174167
 H         0.316309        -1.963519         0.400150
 H        -0.694987        -1.198245        -0.851429
 H        -0.595953         2.273342        -0.016748
 H        -1.498790         1.027806        -0.954725
 H        -2.869913         1.860778         0.929272
