19
Iteration:  1396charge 0 multiplicity 1
 C        -3.774734        -0.353540         2.031151
 C        -2.389772        -0.118981         1.586009
 C        -1.675890        -1.310192         1.306224
 C        -0.787337        -1.240831         0.059488
 C         0.071660         0.029605         0.102177
 O         1.278643         0.095433         0.193319
 C        -0.806416         1.270135         0.082921
 C        -2.108784         1.148892         0.940861
 O        -1.697484         1.019291         2.328336
 H        -3.715270        -1.130872         2.767902
 H        -4.173909         0.658562         2.496010
 H        -4.378089        -0.771571         1.219316
 H        -0.995646        -1.659565         2.143012
 H        -2.424431        -2.149200         1.087143
 H        -0.298509        -2.168057         0.023390
 H        -1.470841        -0.968298        -0.802021
 H        -0.143588         2.013752         0.501958
 H        -0.973264         1.641230        -0.936464
 H        -2.909518         1.883831         0.645710
