19
Iteration:  2548charge 0 multiplicity 1
 C        -3.826100        -0.547647         1.499386
 C        -2.397539        -0.061731         1.644964
 C        -1.313940        -1.212534         1.613332
 C        -0.593675        -1.274442         0.243612
 C         0.036620         0.043940        -0.033111
 O         0.996045         0.037330        -0.811585
 C        -0.468376         1.258913         0.771686
 C        -1.951790         1.258517         1.162120
 O        -2.321410         1.099820         2.627185
 H        -4.118580        -0.942032         2.525094
 H        -4.449307         0.222162         1.210855
 H        -3.746567        -1.350571         0.643037
 H        -0.606870        -0.958808         2.432751
 H        -1.760105        -2.211494         1.882809
 H         0.011394        -2.234468         0.163353
 H        -1.266556        -1.484615        -0.628951
 H         0.127786         1.151118         1.591724
 H        -0.158933         2.201777         0.393240
 H        -2.523173         2.124977         0.688177
