19
Iteration:  1666charge 0 multiplicity 1
 C        -3.763721        -0.309223         0.973228
 C        -2.352147        -0.073527         1.519646
 C        -1.439868        -1.253831         1.786851
 C        -0.137191        -1.325337         0.899116
 C         0.019474        -0.032325         0.080639
 O         0.032617         0.080454        -1.120544
 C        -0.124931         1.175292         1.048255
 C        -1.703529         1.170359         1.179245
 O        -2.233954         1.130768         2.441549
 H        -4.265506        -1.132494         1.389797
 H        -4.471181         0.622738         1.067066
 H        -3.597121        -0.467019        -0.062692
 H        -1.257214        -1.169416         2.845691
 H        -2.009970        -2.089114         1.632736
 H         0.808772        -1.635847         1.443952
 H        -0.224215        -2.264048         0.329574
 H         0.324947         0.750108         2.017113
 H         0.205580         2.227436         0.700528
 H        -2.170005         1.853707         0.418402
