19
Iteration:   729charge 0 multiplicity 1
 C        -3.695728        -0.247132         2.370238
 C        -2.424033        -0.052881         1.511602
 C        -1.865850        -1.390708         1.002323
 C        -0.648082        -1.293429         0.020244
 C        -0.053917         0.015110         0.181689
 O         1.049133         0.295963         0.654526
 C        -0.927374         1.209437        -0.216744
 C        -1.981335         1.238127         0.894973
 O        -1.395362         0.808680         2.157804
 H        -3.373762        -0.586142         3.381514
 H        -4.283523         0.608084         2.381674
 H        -4.281564        -1.083303         1.959728
 H        -1.517724        -2.036411         1.857483
 H        -2.688995        -1.955015         0.512770
 H         0.158921        -2.063251         0.151970
 H        -0.997005        -1.356694        -0.992019
 H        -0.145336         2.055129        -0.271718
 H        -1.408616         1.155051        -1.200780
 H        -2.607996         2.135656         0.856512
