19
Iteration:  1788charge 0 multiplicity 1
 C        -3.824380        -0.489087         1.347650
 C        -2.412786        -0.019475         1.627491
 C        -1.390783        -1.208964         1.761760
 C        -0.644211        -1.253268         0.465127
 C         0.081357        -0.014424         0.138714
 O         0.871332        -0.079098        -0.811883
 C        -0.445997         1.365228         0.710783
 C        -1.907495         1.251244         1.056550
 O        -2.132054         1.042238         2.517874
 H        -4.236486        -0.925667         2.259758
 H        -4.354864         0.456058         1.167689
 H        -3.865890        -1.227896         0.496412
 H        -0.758213        -1.068822         2.588692
 H        -1.881094        -2.106636         1.791739
 H        -0.105875        -2.174448         0.201324
 H        -1.390144        -1.283330        -0.407730
 H         0.211563         1.619350         1.643646
 H        -0.273740         2.052773        -0.097057
 H        -2.510784         1.957880         0.541721
