19
Iteration:  4280
 C        -3.803457        -0.233988         2.399799
 C        -2.553053        -0.179797         1.511036
 C        -1.900911        -1.361463         0.720716
 C        -0.430374        -1.159260         0.472740
 C         0.081313         0.173723         0.034407
 O         1.249008         0.474590         0.148941
 C        -1.121812         1.184225        -0.124021
 C        -2.045144         1.138359         1.127492
 O        -1.434478         0.531399         2.307591
 H        -3.651066        -0.663581         3.422224
 H        -4.168860         0.705473         2.603869
 H        -4.616457        -0.768769         1.993392
 H        -1.963862        -2.362581         1.157093
 H        -2.286151        -1.526951        -0.303122
 H         0.086764        -1.356939         1.379654
 H        -0.028915        -1.756790        -0.379918
 H        -0.569638         2.065519        -0.400206
 H        -1.784939         1.005041        -1.016757
 H        -2.603696         2.106320         1.326190
