19
Iteration:   970charge 0 multiplicity 1
 C        -3.887916        -0.324928         1.342100
 C        -2.387936        -0.086629         1.527529
 C        -1.592830        -1.312481         1.195340
 C        -0.017362        -1.160492         0.977501
 C         0.061469         0.062887         0.151537
 O         0.298082         0.069791        -1.031474
 C        -0.399011         1.295332         0.807543
 C        -1.813380         1.225234         1.229568
 O        -2.001565         0.815166         2.630608
 H        -4.343270        -0.856990         2.194215
 H        -4.373240         0.653141         1.271741
 H        -4.025605        -0.803231         0.329309
 H        -1.707912        -2.271401         1.733711
 H        -1.860876        -1.431663         0.114555
 H         0.636197        -1.210987         1.870858
 H         0.156936        -1.987183         0.334028
 H         0.222760         1.545380         1.605084
 H        -0.400798         2.065220         0.039661
 H        -2.487005         2.031670         0.923024
