19
Iteration:  1935
 C        -3.966386        -0.188448         2.039287
 C        -2.518827        -0.098484         1.499582
 C        -1.666425        -1.382858         1.223214
 C        -0.577456        -1.359362         0.162147
 C         0.074865         0.029469         0.036710
 O         1.252915         0.257714         0.098338
 C        -0.846133         1.211234        -0.049623
 C        -1.903535         1.254229         1.117364
 O        -1.692162         0.808239         2.454760
 H        -3.960473        -0.764972         2.954749
 H        -4.385509         0.856610         2.240218
 H        -4.630190        -0.664821         1.347503
 H        -1.215865        -1.481245         2.232740
 H        -2.417878        -2.174041         0.948258
 H         0.231885        -2.015808         0.571620
 H        -1.013378        -1.574056        -0.868833
 H        -0.268816         2.101876         0.116577
 H        -1.481598         1.425579        -1.004025
 H        -2.820195         1.929968         1.063115
