19
Iteration:  2058
 C        -3.687601        -0.153881         2.324852
 C        -2.363871        -0.083345         1.594301
 C        -2.087414        -1.303611         0.729481
 C        -0.551416        -1.343584         0.486260
 C         0.010534         0.152756         0.272282
 O         1.219778         0.380674         0.392456
 C        -1.107425         1.137236        -0.239691
 C        -2.033354         1.175841         0.896089
 O        -1.316621         0.631026         2.188765
 H        -3.672249        -0.474405         3.343043
 H        -4.200525         0.784323         2.303071
 H        -4.274661        -0.795749         1.725680
 H        -2.503210        -2.234835         1.133733
 H        -2.664984        -1.310456        -0.204586
 H        -0.081853        -1.755739         1.380922
 H        -0.319149        -1.897985        -0.466958
 H        -0.725025         2.089578        -0.401486
 H        -1.402167         0.752765        -1.267314
 H        -2.588459         1.964882         1.193609
