19
Iteration:  4753charge 0 multiplicity 1
 C        -3.838202        -0.636731         1.407408
 C        -2.399302        -0.127542         1.653059
 C        -1.290926        -1.177147         1.837967
 C        -0.561079        -1.267955         0.514814
 C         0.036558         0.108608         0.026043
 O         0.758561         0.160393        -0.983013
 C        -0.380548         1.317311         0.697202
 C        -1.818397         1.213497         1.131105
 O        -2.263551         1.003841         2.524805
 H        -3.912701        -1.117907         0.430757
 H        -4.126090        -1.439484         2.217530
 H        -4.556635         0.192568         1.327954
 H        -0.644682        -0.834623         2.608648
 H        -1.833458        -2.103815         2.190465
 H         0.128438        -2.139787         0.291599
 H        -1.328550        -1.533068        -0.219827
 H         0.351990         1.599022         1.521614
 H        -0.346543         2.014246        -0.077048
 H        -2.504206         1.867745         0.600008
