19
Iteration:  2053charge 0 multiplicity 1
 C        -3.696025        -0.158291         2.342942
 C        -2.362560        -0.079318         1.585941
 C        -2.066931        -1.305380         0.714940
 C        -0.522241        -1.379431         0.451100
 C         0.007825         0.106222         0.234873
 O         1.175300         0.375536         0.420366
 C        -1.114596         1.122457        -0.226876
 C        -2.003158         1.197818         0.916660
 O        -1.346493         0.667952         2.181826
 H        -3.517594        -0.569525         3.396754
 H        -4.200387         0.912628         2.355821
 H        -4.367902        -0.821651         1.693595
 H        -2.344506        -2.264551         1.202950
 H        -2.576709        -1.221115        -0.274250
 H        -0.021034        -1.697102         1.387000
 H        -0.227174        -1.913098        -0.445775
 H        -0.642862         2.177555        -0.333978
 H        -1.470632         0.751422        -1.216453
 H        -2.632336         2.184769         1.165422
