19
Iteration:  1256
 C        -3.842699        -0.171275         2.306437
 C        -2.526720        -0.119247         1.512785
 C        -2.027742        -1.357021         0.689335
 C        -0.496552        -1.316949         0.571817
 C         0.087830         0.131085         0.212809
 O         1.276722         0.435941         0.131858
 C        -0.999149         1.170347        -0.058882
 C        -1.979157         1.157217         1.079472
 O        -1.401175         0.625631         2.208683
 H        -3.985154        -1.136523         2.850255
 H        -3.853742         0.696221         3.016648
 H        -4.800761        -0.019554         1.781828
 H        -2.354937        -2.267502         1.112985
 H        -2.547321        -1.233634        -0.268650
 H        -0.136032        -1.622966         1.546866
 H        -0.216346        -2.060378        -0.227614
 H        -0.398541         2.146205        -0.361571
 H        -1.479903         0.837271        -1.039936
 H        -2.654532         2.031366         1.167940
