19
Iteration:  4983
 C        -3.866098        -0.684688         1.540419
 C        -2.427529        -0.117165         1.777117
 C        -1.360063        -1.199159         1.718027
 C        -0.581179        -1.213489         0.398672
 C         0.083100         0.157338        -0.094250
 O         0.876831         0.149684        -1.012234
 C        -0.331896         1.300220         0.737409
 C        -1.922922         1.150996         1.177292
 O        -2.295655         1.044382         2.526625
 H        -4.359748        -1.015014         2.496305
 H        -4.497898         0.075935         1.072077
 H        -3.610897        -1.497888         0.843729
 H        -0.743116        -0.996927         2.579455
 H        -1.876477        -2.156276         2.099929
 H         0.182398        -2.046214         0.289866
 H        -1.296917        -1.275542        -0.442234
 H         0.436041         1.232334         1.647299
 H        -0.067607         2.235582         0.342001
 H        -2.462659         1.904230         0.552070
