19
Iteration:  1183charge 0 multiplicity 1
 C        -4.001749        -0.336570         1.797953
 C        -2.563899        -0.036329         1.587180
 C        -1.856394        -1.235393         1.040307
 C        -0.349078        -1.124270         0.791099
 C         0.189441         0.065279         0.049803
 O         1.153826         0.124683        -0.670070
 C        -0.716968         1.357618         0.276109
 C        -1.928887         1.229864         1.239547
 O        -1.775869         0.567424         2.581129
 H        -4.050499        -1.071326         2.700446
 H        -4.627561         0.446233         2.069836
 H        -4.503908        -0.769151         0.888177
 H        -2.093176        -2.022605         1.849954
 H        -2.324546        -1.483618         0.059295
 H         0.238260        -0.870892         1.752577
 H        -0.031382        -2.031595         0.358448
 H        -0.107615         2.169339         0.589408
 H        -1.118026         1.667635        -0.685630
 H        -2.543512         2.124374         1.234133
