19
Iteration:   372
 C        -3.995442        -0.172444         1.164023
 C        -2.392879        -0.079042         1.386632
 C        -1.466335        -1.350126         1.589813
 C         0.010176        -1.321774         1.001119
 C         0.045357        -0.002442         0.083973
 O         0.169736         0.087924        -1.102053
 C        -0.192736         1.188777         0.916060
 C        -1.787142         1.227833         1.180221
 O        -2.122528         0.979157         2.506171
 H        -4.519096        -0.649951         2.041120
 H        -4.365451         0.751790         0.981943
 H        -4.217870        -0.767615         0.230570
 H        -1.552745        -1.600634         2.728605
 H        -1.908100        -2.277037         0.992535
 H         0.724793        -1.070006         1.850439
 H         0.344382        -2.234782         0.626603
 H         0.311708         1.066512         1.920764
 H         0.114341         2.037020         0.349610
 H        -2.231320         2.067966         0.708486
