19
Iteration:  2128charge 0 multiplicity 1
 C        -3.832870        -0.221485         2.083979
 C        -2.445402        -0.125127         1.599646
 C        -1.888202        -1.357509         0.946643
 C        -0.470739        -1.314442         0.431593
 C         0.052908         0.101904         0.141707
 O         1.234049         0.251922        -0.045761
 C        -0.902785         1.189925         0.030988
 C        -1.984169         1.162546         1.073494
 O        -1.640477         0.850806         2.431489
 H        -3.924891        -0.835297         2.981255
 H        -4.227371         0.750372         2.286169
 H        -4.320596        -0.617551         1.186079
 H        -2.103620        -2.324771         1.470287
 H        -2.539683        -1.604209         0.086182
 H         0.214260        -1.625962         1.242210
 H        -0.314889        -1.838760        -0.493397
 H        -0.348941         2.225210         0.049856
 H        -1.440261         1.201192        -0.862934
 H        -2.674261         2.082243         0.983958
