19
Iteration:  2986
 C        -3.965832        -0.362058         1.854543
 C        -2.528609        -0.095000         1.517807
 C        -1.789874        -1.336982         1.254311
 C        -0.520184        -1.212768         0.389429
 C         0.087650         0.123820         0.166727
 O         1.290420         0.284067        -0.149401
 C        -0.978121         1.247289         0.103172
 C        -2.018334         1.239273         1.166653
 O        -1.518927         0.730088         2.398727
 H        -3.974872        -1.277687         2.377093
 H        -4.391830         0.424253         2.569035
 H        -4.332604        -0.424657         0.806188
 H        -1.404186        -1.701144         2.154462
 H        -2.373161        -2.161977         0.836812
 H         0.257735        -1.808510         0.768246
 H        -0.836010        -1.728804        -0.569781
 H        -0.466924         2.255467        -0.035623
 H        -1.506039         1.088409        -0.864167
 H        -2.592367         2.153970         1.329568
