19
Iteration:  2024
 C        -3.678754        -0.235014         2.426289
 C        -2.505361        -0.016387         1.411934
 C        -1.994163        -1.349666         0.804787
 C        -0.477605        -1.420341         0.336397
 C         0.025181         0.005663         0.058944
 O         1.102364         0.383317         0.499076
 C        -0.977443         1.131339        -0.280923
 C        -1.903512         1.255698         0.978792
 O        -1.529803         0.811171         2.301784
 H        -3.413391        -1.102834         2.994331
 H        -3.711426         0.707285         3.057574
 H        -4.594407        -0.439484         1.955242
 H        -2.068781        -2.070483         1.607130
 H        -2.557895        -1.478030        -0.137082
 H         0.273448        -1.865182         1.015935
 H        -0.366282        -2.085533        -0.600632
 H        -0.466822         2.020749        -0.341293
 H        -1.562037         0.817073        -1.243382
 H        -2.397775         2.221151         0.846270
