19
Iteration:  4899
 C        -3.871414        -0.527918         1.264858
 C        -2.468438        -0.166042         1.802864
 C        -1.331379        -1.233434         1.751789
 C        -0.353725        -1.226902         0.569940
 C         0.094365         0.066025        -0.034186
 O         0.597247         0.161000        -1.162789
 C        -0.397876         1.305470         0.802512
 C        -1.799437         1.187019         1.250196
 O        -2.208144         1.012083         2.615411
 H        -4.710113        -0.990476         1.934362
 H        -4.281653         0.051339         0.527174
 H        -3.754227        -1.534188         0.742066
 H        -0.769458        -0.891021         2.643770
 H        -1.844126        -2.150700         1.781392
 H         0.452593        -1.949877         0.641307
 H        -0.858632        -1.729049        -0.288469
 H         0.037838         1.568218         1.705239
 H        -0.402611         2.242923         0.030642
 H        -2.438435         2.054980         0.916923
