19
Iteration:  2416charge 0 multiplicity 1
 C        -3.945525        -0.387409         1.404733
 C        -2.457885        -0.112743         1.512412
 C        -1.496100        -1.343878         1.521198
 C        -0.191555        -1.297993         0.742083
 C         0.085575         0.093529         0.147129
 O         0.540353         0.081933        -0.956571
 C        -0.334748         1.405356         0.715038
 C        -1.835300         1.206176         1.132052
 O        -2.107706         0.939799         2.540790
 H        -4.069184        -1.493937         1.463719
 H        -4.450346         0.179653         2.176955
 H        -4.412064        -0.162279         0.399512
 H        -1.294813        -1.535293         2.595719
 H        -2.117791        -2.225544         1.190599
 H         0.676952        -1.619510         1.315669
 H        -0.392806        -1.835203        -0.192850
 H         0.158896         1.660102         1.665597
 H        -0.277871         2.152618        -0.047061
 H        -2.513380         2.061482         0.758038
