19
Iteration:  1189
 C        -4.007148        -0.330481         1.868731
 C        -2.515336        -0.020839         1.563631
 C        -1.889638        -1.288006         0.996159
 C        -0.375252        -1.098889         0.774606
 C         0.175239         0.081206         0.049187
 O         1.221593         0.096065        -0.616899
 C        -0.760305         1.380675         0.234489
 C        -1.938759         1.258464         1.259231
 O        -1.772962         0.560206         2.555996
 H        -3.846408        -1.162394         2.502272
 H        -4.649805         0.583912         2.263759
 H        -4.460478        -0.801186         1.017127
 H        -2.053601        -2.073036         1.670253
 H        -2.481417        -1.561892         0.119438
 H         0.098188        -0.980683         1.726108
 H         0.137412        -2.082056         0.413349
 H        -0.180080         2.326983         0.635978
 H        -1.233064         1.597405        -0.773384
 H        -2.617622         2.142187         1.225241
