19
Iteration:  4492
 C        -3.900762        -0.467588         1.981842
 C        -2.424263        -0.087183         1.646351
 C        -1.460424        -1.364614         1.438742
 C        -0.677667        -1.199732         0.096023
 C         0.094750         0.116224        -0.066218
 O         1.306500         0.143270        -0.205362
 C        -0.799048         1.458897         0.152739
 C        -2.025746         1.171645         1.050156
 O        -1.986094         0.846210         2.559137
 H        -3.870859        -1.493643         2.179113
 H        -4.148464        -0.008143         2.965888
 H        -4.557651        -0.286337         1.134781
 H        -0.757148        -1.315477         2.251926
 H        -2.034117        -2.369694         1.445968
 H         0.130438        -2.010770        -0.097603
 H        -1.379905        -1.383981        -0.756710
 H        -0.066624         2.277917         0.519928
 H        -1.102766         1.754246        -0.859005
 H        -2.870926         1.760000         0.752846
