19
Iteration:  1906charge 0 multiplicity 1
 C        -3.921703        -0.367313         1.859421
 C        -2.417992        -0.026136         1.674765
 C        -1.685727        -1.295264         1.363710
 C        -0.719793        -1.196067         0.163190
 C         0.145667         0.065046         0.187535
 O         1.359032         0.047739        -0.129086
 C        -0.830855         1.255664         0.097003
 C        -2.051061         1.224508         1.080272
 O        -1.731197         0.924946         2.469260
 H        -4.090870        -0.741462         2.863943
 H        -4.606861         0.511553         1.624514
 H        -4.087537        -1.174992         1.133584
 H        -1.138914        -1.797098         2.229903
 H        -2.382204        -2.074758         0.899445
 H        -0.072051        -2.087846        -0.007078
 H        -1.212723        -1.133926        -0.807605
 H        -0.354417         2.210457         0.290527
 H        -1.259414         1.234467        -0.882369
 H        -2.897554         1.853585         0.903624
