19
Iteration:   353
 C        -3.821480        -0.254139         1.252609
 C        -2.367816        -0.032718         1.413576
 C        -1.638101        -1.319939         1.471056
 C        -0.143013        -1.174311         1.037739
 C         0.072947        -0.013502         0.117821
 O         0.221206        -0.020403        -1.074081
 C        -0.230180         1.328175         0.892628
 C        -1.689514         1.265552         1.128235
 O        -2.136256         0.839242         2.472348
 H        -4.073575        -0.926783         2.126679
 H        -4.288678         0.775961         1.348647
 H        -4.072663        -0.820113         0.382406
 H        -1.589408        -1.687170         2.497481
 H        -2.179985        -2.073736         0.903124
 H         0.493093        -1.140650         1.972230
 H         0.112369        -2.065243         0.523301
 H         0.382342         1.330520         1.874320
 H         0.084376         2.165701         0.288612
 H        -2.311658         2.031033         0.704199
