19
Iteration:  1510
 C        -3.838885        -0.430432         1.498382
 C        -2.404691        -0.034786         1.642593
 C        -1.456212        -1.243203         1.754325
 C        -0.591377        -1.261711         0.494260
 C         0.091619         0.022486         0.033299
 O         0.876893         0.022740        -0.875643
 C        -0.364141         1.245155         0.735343
 C        -1.861355         1.238928         1.048590
 O        -2.227020         1.056513         2.417713
 H        -4.323138        -0.961377         2.376393
 H        -4.363214         0.430355         1.336251
 H        -3.873008        -1.140665         0.635267
 H        -0.895391        -1.281053         2.667887
 H        -2.112741        -2.064588         1.655147
 H         0.059031        -2.209267         0.630362
 H        -1.215818        -1.363364        -0.418718
 H         0.034132         1.099675         1.861124
 H         0.073953         2.210058         0.352939
 H        -2.551201         1.866235         0.515189
