19
Iteration:  3956charge 0 multiplicity 1
 C        -3.864043        -0.442233         1.188505
 C        -2.381274        -0.157935         1.526668
 C        -1.500119        -1.370335         1.463213
 C         0.019962        -1.119388         0.863628
 C        -0.022159         0.144216         0.103926
 O         0.297414         0.248249        -1.104631
 C        -0.512379         1.364292         0.684236
 C        -1.899665         1.225203         1.351874
 O        -1.911304         0.732951         2.683593
 H        -4.256327        -1.493590         1.328569
 H        -4.573910         0.207803         1.611028
 H        -3.993097        -0.407167         0.108310
 H        -1.399619        -1.712630         2.588115
 H        -1.977091        -2.198018         0.957349
 H         0.725780        -1.010386         1.727385
 H         0.278050        -2.027110         0.289149
 H         0.113709         1.535165         1.626826
 H        -0.387012         2.038650        -0.081969
 H        -2.673175         1.930124         1.166336
