19
Iteration:  2194charge 0 multiplicity 1
 C        -3.986739        -0.149496         1.835707
 C        -2.534930        -0.116839         1.459939
 C        -1.694704        -1.464049         1.280911
 C        -0.309944        -1.300051         0.555368
 C         0.073735         0.038759        -0.006779
 O         1.192582         0.178147        -0.515847
 C        -0.746172         1.401505         0.323405
 C        -1.941574         1.193443         1.176162
 O        -1.933607         0.749358         2.504617
 H        -4.283403        -1.135124         2.195639
 H        -4.121072         0.486074         2.732810
 H        -4.547791         0.395612         1.100722
 H        -1.584472        -1.956555         2.305512
 H        -2.429092        -2.119311         0.742504
 H         0.398900        -1.267310         1.426480
 H         0.004418        -2.170960        -0.026318
 H         0.056677         2.250359         0.710578
 H        -1.126425         1.657393        -0.675582
 H        -2.680206         2.058185         0.944964
