19
Iteration:  1495charge 0 multiplicity 1
 C        -3.809894        -0.406382         1.491868
 C        -2.373525        -0.061005         1.676681
 C        -1.486712        -1.325701         1.642351
 C        -0.616580        -1.218194         0.430092
 C         0.063264         0.046371         0.023983
 O         0.998620        -0.096515        -0.773390
 C        -0.462295         1.353038         0.669871
 C        -1.927285         1.197782         1.060162
 O        -2.194454         1.121132         2.546396
 H        -4.065995        -0.900699         2.476044
 H        -4.441585         0.521378         1.244483
 H        -3.997381        -1.138498         0.639538
 H        -0.962186        -1.455444         2.623760
 H        -2.115013        -2.286865         1.604181
 H         0.262396        -1.846409         0.307411
 H        -1.300182        -1.470881        -0.410873
 H         0.190977         1.500892         1.487077
 H        -0.274816         2.157283         0.014575
 H        -2.672728         1.783019         0.483571
