19
Iteration:  1605charge 0 multiplicity 1
 C        -3.687045        -0.330288         0.775656
 C        -2.365750        -0.001733         1.576981
 C        -1.440798        -1.195688         1.894255
 C        -0.339789        -1.350040         0.798871
 C         0.000877        -0.086488         0.147427
 O         0.110412         0.064518        -1.035545
 C        -0.202276         1.268267         0.836103
 C        -1.670790         1.255954         1.248528
 O        -2.153898         0.984172         2.607954
 H        -4.376748        -1.091718         1.358572
 H        -4.269845         0.430347         0.334092
 H        -3.246391        -1.098639        -0.001434
 H        -0.925774        -1.106351         2.884720
 H        -2.132223        -2.178131         1.882224
 H         0.616632        -1.525222         1.263730
 H        -0.641390        -2.093669         0.032641
 H         0.470958         1.426087         1.614222
 H         0.014700         1.990840         0.127465
 H        -2.244645         2.037038         0.787670
