19
Iteration:   106charge 0 multiplicity 1
 C        -3.802521        -0.065688         2.224548
 C        -2.375729        -0.044356         1.597988
 C        -1.757606        -1.332799         1.117798
 C        -0.725023        -1.306703        -0.089776
 C         0.030504        -0.017937         0.053645
 O         1.000945         0.129618         0.790061
 C        -0.921947         1.189355        -0.315127
 C        -1.923278         1.151557         0.935498
 O        -1.372518         0.852379         2.256301
 H        -3.938610        -0.903308         2.859411
 H        -3.816154         0.914335         2.884999
 H        -4.487941         0.057811         1.351672
 H        -1.379744        -1.998845         1.950894
 H        -2.589577        -1.923205         0.613545
 H        -0.120346        -2.173209        -0.037883
 H        -1.352305        -1.354667        -1.085401
 H        -0.416341         2.126969        -0.456201
 H        -1.508234         0.858234        -1.256479
 H        -2.572545         2.084883         0.954587
