19
Iteration:  2174charge 0 multiplicity 1
 C        -4.022810        -0.283759         1.912571
 C        -2.537161        -0.081757         1.494900
 C        -1.809040        -1.353433         1.221420
 C        -0.410724        -1.210141         0.568246
 C         0.083955         0.070411         0.039900
 O         1.241974         0.181490        -0.358108
 C        -0.730951         1.331206         0.151267
 C        -1.945348         1.233163         1.119379
 O        -1.786378         0.697327         2.449051
 H        -4.008732        -1.314118         2.269834
 H        -4.174223         0.320815         2.902537
 H        -4.708666         0.051475         1.148851
 H        -1.666224        -1.726791         2.254973
 H        -2.429236        -2.187759         0.838831
 H         0.389584        -1.451961         1.281118
 H        -0.417285        -1.903639        -0.251575
 H         0.008851         2.091962         0.540241
 H        -1.050080         1.653477        -0.801149
 H        -2.615937         2.217312         1.046379
