19
Iteration:  1472
 C        -3.974985        -0.403414         1.555934
 C        -2.452199        -0.089560         1.666071
 C        -1.485624        -1.234348         1.621253
 C        -0.683776        -1.345515         0.297504
 C         0.102114        -0.040034         0.016861
 O         1.153126         0.019505        -0.595779
 C        -0.566458         1.350747         0.472301
 C        -1.901817         1.273232         1.179744
 O        -2.041688         1.035364         2.560910
 H        -4.375391        -1.008853         2.378056
 H        -4.604902         0.577810         1.248489
 H        -4.094368        -0.982668         0.613862
 H        -0.655785        -1.102095         2.396206
 H        -1.886202        -2.253552         1.967936
 H         0.049207        -2.119138         0.315221
 H        -1.378915        -1.554635        -0.547769
 H         0.105177         1.880731         1.037833
 H        -0.591838         1.876404        -0.478350
 H        -2.653660         1.960884         0.697151
