19
Iteration:   491
 C        -3.687291        -0.397713         1.175938
 C        -2.336294        -0.046533         1.687395
 C        -1.289336        -1.203782         1.909509
 C        -0.636603        -1.313230         0.481386
 C        -0.082664         0.003637         0.001965
 O         0.621380         0.099198        -0.972987
 C        -0.190265         1.182531         0.908244
 C        -1.763282         1.183583         1.184832
 O        -2.405944         1.123928         2.453842
 H        -4.064267        -1.246440         1.860778
 H        -4.356248         0.373439         1.269861
 H        -3.946992        -0.709939         0.047186
 H        -0.586892        -0.995777         2.749742
 H        -1.768295        -2.173509         2.069295
 H         0.170185        -2.085282         0.388522
 H        -1.380480        -1.679752        -0.167479
 H         0.277360         0.759557         1.752755
 H         0.399035         1.924649         0.504497
 H        -2.249645         1.659921         0.410626
