19
Iteration:  2846
 C        -3.715308        -0.232219         2.262412
 C        -2.344777        -0.087646         1.579795
 C        -1.698889        -1.447344         0.964838
 C        -0.503776        -1.306265        -0.111915
 C         0.072931         0.065659         0.114091
 O         1.099859         0.297406         0.630141
 C        -1.117195         1.130564        -0.151380
 C        -2.125963         1.187211         0.951739
 O        -1.510914         0.942303         2.300312
 H        -3.687591        -0.732982         3.183278
 H        -4.136865         0.769260         2.671139
 H        -4.551466        -0.697612         1.711603
 H        -1.307894        -1.817522         1.985161
 H        -2.499321        -2.065666         0.562983
 H         0.261657        -1.992998         0.112188
 H        -0.928959        -1.627291        -1.084690
 H        -0.687991         2.096002        -0.345296
 H        -1.672196         0.829486        -1.188188
 H        -2.852373         1.977065         0.997885
