19
Iteration:  2381charge 0 multiplicity 1
 C        -3.876645        -0.254417         1.310743
 C        -2.409089        -0.111230         1.695713
 C        -1.589371        -1.350360         1.525213
 C        -0.133197        -1.191399         0.880275
 C         0.047777         0.017763        -0.056567
 O         0.611332         0.149164        -1.116788
 C        -0.450767         1.272624         0.700866
 C        -1.862213         1.148311         1.136556
 O        -2.129639         0.889652         2.637804
 H        -4.265490        -1.246277         1.529816
 H        -4.644251         0.351324         1.989861
 H        -4.062573         0.073458         0.301236
 H        -1.411566        -1.804530         2.562885
 H        -2.020116        -2.220019         0.931374
 H         0.622104        -1.093626         1.741624
 H         0.235098        -2.143585         0.454426
 H        -0.000262         1.250483         1.650455
 H        -0.188516         2.206464         0.337358
 H        -2.567976         1.915502         0.613758
