19
Iteration:  1457
 C        -3.937549        -0.342791         1.565577
 C        -2.509793         0.001047         1.625004
 C        -1.423546        -1.151499         1.634917
 C        -0.700427        -1.291917         0.269569
 C         0.074271        -0.036758         0.018876
 O         1.203539         0.081867        -0.450749
 C        -0.613586         1.170878         0.354100
 C        -1.971067         1.233464         1.086224
 O        -1.963875         0.888456         2.585908
 H        -4.215541        -0.896106         2.458795
 H        -4.652088         0.530064         1.678997
 H        -4.190543        -0.939733         0.702659
 H        -0.729033        -0.856360         2.454086
 H        -1.930017        -2.062428         1.849763
 H        -0.206627        -2.300661         0.178848
 H        -1.406974        -1.374015        -0.560333
 H         0.157483         1.884381         0.866423
 H        -0.948475         1.642394        -0.641663
 H        -2.582813         2.139584         0.985521
