19
Iteration:  2547
 C        -3.831848        -0.547309         1.497598
 C        -2.394548        -0.065683         1.631771
 C        -1.318851        -1.210906         1.611981
 C        -0.584262        -1.270483         0.251049
 C         0.032391         0.047142        -0.030438
 O         0.993523         0.028617        -0.817183
 C        -0.472275         1.273990         0.777008
 C        -1.953704         1.258086         1.158109
 O        -2.313330         1.088920         2.627035
 H        -4.100026        -0.921032         2.534174
 H        -4.462455         0.246447         1.197261
 H        -3.734437        -1.365678         0.682042
 H        -0.625585        -0.914604         2.444830
 H        -1.762097        -2.233600         1.896766
 H         0.011394        -2.260884         0.171915
 H        -1.261930        -1.480338        -0.616519
 H         0.134287         1.154714         1.612914
 H        -0.167737         2.203936         0.425701
 H        -2.511655         2.164217         0.702727
