19
Iteration:  1383
 C        -3.779672        -0.357961         2.210586
 C        -2.471615        -0.031962         1.551434
 C        -1.696783        -1.387913         1.235104
 C        -0.804542        -1.259621        -0.015917
 C         0.083873         0.006852         0.142403
 O         1.292764         0.177034         0.305274
 C        -0.792209         1.268876         0.079740
 C        -2.053136         1.222615         0.848976
 O        -1.667818         0.918898         2.218117
 H        -3.645265        -1.025694         3.048392
 H        -4.359857         0.616431         2.656262
 H        -4.512868        -0.751205         1.509919
 H        -1.098682        -1.531468         2.209260
 H        -2.417135        -2.270428         1.215599
 H        -0.155351        -2.076796        -0.223215
 H        -1.418341        -1.244840        -0.939692
 H        -0.318033         2.076344         0.449429
 H        -0.974196         1.342716        -1.000236
 H        -2.768258         2.086480         0.865974
