19
Iteration:  1481
 C        -3.904276        -0.423503         1.511117
 C        -2.439437        -0.108542         1.651431
 C        -1.477070        -1.283386         1.648495
 C        -0.640066        -1.350415         0.304552
 C         0.078300         0.043450         0.012513
 O         1.097023        -0.061046        -0.663759
 C        -0.510606         1.415061         0.551874
 C        -1.896993         1.198129         1.179679
 O        -2.098376         1.129943         2.560164
 H        -4.369242        -0.865879         2.357297
 H        -4.579988         0.577611         1.382231
 H        -4.064201        -1.086139         0.690331
 H        -0.720833        -1.233032         2.505711
 H        -2.126694        -2.194452         1.732785
 H        -0.010183        -2.197786         0.391309
 H        -1.220906        -1.587121        -0.602820
 H         0.084212         1.870498         1.290982
 H        -0.686658         2.138506        -0.303876
 H        -2.658488         1.872058         0.679855
