19
Iteration:  1760charge 0 multiplicity 1
 C        -3.868188        -0.349437         1.203650
 C        -2.457667        -0.026010         1.608272
 C        -1.393363        -1.170661         1.825514
 C        -0.515452        -1.413409         0.580927
 C        -0.036178        -0.065146        -0.112689
 O         0.828774         0.124334        -0.937556
 C        -0.377438         1.182627         0.773006
 C        -1.841822         1.189409         1.193332
 O        -2.225431         1.091181         2.610243
 H        -4.423377        -0.499355         2.167432
 H        -4.286670         0.517751         0.709538
 H        -3.836663        -1.251533         0.579900
 H        -0.766017        -0.776402         2.702647
 H        -1.690204        -2.279392         2.134339
 H         0.442202        -1.892386         0.793611
 H        -0.860212        -2.197716        -0.079118
 H         0.317814         1.144476         1.554197
 H        -0.172216         1.985613         0.044949
 H        -2.378150         1.924939         0.537073
