19
Iteration:   706
 C        -3.698857        -0.130872         2.220807
 C        -2.392922        -0.116866         1.476446
 C        -1.772431        -1.460762         1.118714
 C        -0.657165        -1.282793         0.051445
 C        -0.011559         0.101452         0.151108
 O         1.142558         0.164925         0.544818
 C        -1.016917         1.348110        -0.091557
 C        -2.124591         1.189738         0.928919
 O        -1.417081         0.749637         2.162398
 H        -3.571966        -0.509003         3.252902
 H        -4.039985         0.901393         2.138215
 H        -4.473035        -0.721194         1.760191
 H        -1.214793        -1.725718         2.067307
 H        -2.506139        -2.316845         0.923017
 H         0.114006        -2.045264         0.155942
 H        -1.045698        -1.384832        -0.924201
 H        -0.514341         2.367480        -0.086403
 H        -1.361053         1.176114        -1.130314
 H        -2.739896         2.128590         1.057974
