19
Iteration:   887
 C        -3.951876        -0.262379         1.847388
 C        -2.529544        -0.106379         1.580783
 C        -1.854770        -1.290983         0.886746
 C        -0.305832        -1.190808         0.808013
 C         0.106267         0.057861         0.097054
 O         1.101260         0.157681        -0.593919
 C        -0.838032         1.321195         0.279983
 C        -1.900321         1.217731         1.290591
 O        -1.671932         0.656224         2.558474
 H        -4.155347        -1.165378         2.427504
 H        -4.497449         0.696389         2.190866
 H        -4.500338        -0.385485         0.920634
 H        -2.153327        -2.232653         1.356985
 H        -2.304291        -1.320081        -0.112908
 H         0.221644        -1.071672         1.761146
 H         0.071187        -2.176329         0.281836
 H        -0.201156         2.322718         0.415487
 H        -1.342054         1.523762        -0.698210
 H        -2.561305         2.106687         1.322133
