19
Iteration:  3719charge 0 multiplicity 1
 C        -3.781585        -0.392185         2.165749
 C        -2.465386        -0.232905         1.597557
 C        -1.800291        -1.460418         1.043210
 C        -0.447226        -1.179844         0.307895
 C         0.098548         0.227837         0.164142
 O         1.259011         0.429255        -0.041915
 C        -0.985673         1.304829         0.057140
 C        -2.054275         1.122132         1.037267
 O        -1.673523         0.756727         2.389297
 H        -3.806661        -1.226467         2.950693
 H        -3.908578         0.569308         2.595541
 H        -4.642725        -0.631629         1.413549
 H        -1.595805        -2.299725         1.707552
 H        -2.639332        -1.802254         0.244078
 H         0.393368        -1.813480         0.593339
 H        -0.673409        -1.343927        -0.722991
 H        -0.614569         2.353868         0.069994
 H        -1.459306         1.203313        -1.001834
 H        -3.026406         1.634437         0.914947
