19
Iteration:   996charge 0 multiplicity 1
 C        -3.833839        -0.338054         1.121273
 C        -2.348032        -0.070952         1.464560
 C        -1.610614        -1.418671         1.318858
 C        -0.025285        -1.107147         1.036340
 C         0.037328         0.133877         0.067667
 O         0.067752        -0.054195        -1.152225
 C        -0.219268         1.477192         0.868066
 C        -1.709691         1.320922         1.354374
 O        -2.063407         0.703523         2.678743
 H        -4.231280        -1.028055         1.857326
 H        -4.480821         0.595770         1.001755
 H        -3.806948        -0.672208         0.111846
 H        -1.469367        -1.969974         2.316994
 H        -2.030159        -2.049159         0.475449
 H         0.257515        -0.854051         2.055024
 H         0.507131        -2.061505         0.632325
 H         0.566279         1.484111         1.724185
 H        -0.315194         2.359669         0.281050
 H        -2.445512         2.115666         1.112657
