19
Iteration:  2899
 C        -3.635770        -0.371484         2.451054
 C        -2.485755        -0.155143         1.463557
 C        -1.877621        -1.457600         1.066972
 C        -0.701728        -1.165960         0.119585
 C         0.054363         0.194842         0.297653
 O         1.236362         0.285603         0.576053
 C        -0.923128         1.348949        -0.197467
 C        -2.091144         1.131888         0.813671
 O        -1.482316         0.776968         1.990764
 H        -3.399287        -0.839995         3.361424
 H        -4.261784         0.516580         2.691256
 H        -4.434454        -0.995022         2.002578
 H        -1.649567        -1.850663         2.047649
 H        -2.606847        -2.049003         0.531327
 H         0.062435        -1.836972         0.286944
 H        -0.996525        -1.390396        -0.913323
 H        -0.466857         2.339976        -0.183959
 H        -1.371636         1.171724        -1.106996
 H        -2.844610         1.915012         0.829962
