19
Iteration:  4731
 C        -3.765051        -0.559901         1.345423
 C        -2.349864        -0.176414         1.761005
 C        -1.312934        -1.218238         1.864420
 C        -0.617432        -1.171572         0.488647
 C         0.013378         0.147999        -0.092957
 O         0.894651         0.035327        -0.953574
 C        -0.534338         1.404017         0.649359
 C        -1.925219         1.101721         1.122253
 O        -2.224407         1.063402         2.590599
 H        -3.923785        -0.499307         0.278381
 H        -3.963881        -1.636903         1.763700
 H        -4.479435         0.167556         1.783780
 H        -0.629713        -0.986875         2.637780
 H        -1.784210        -2.255038         1.931494
 H         0.241291        -1.928604         0.510470
 H        -1.239927        -1.730327        -0.191048
 H         0.217866         1.398435         1.519612
 H        -0.403098         2.252380         0.082255
 H        -2.734397         1.600699         0.606110
