19
Iteration:  2693charge 0 multiplicity 1
 C        -3.918461        -0.311048         1.751413
 C        -2.488639        -0.137293         1.536313
 C        -1.594992        -1.468930         1.535142
 C        -0.447686        -1.232670         0.471136
 C         0.033787         0.158375         0.061322
 O         1.084753         0.111347        -0.489604
 C        -0.666365         1.517080         0.411385
 C        -1.969932         1.227708         1.054975
 O        -1.902127         0.743770         2.397933
 H        -3.947677        -0.567496         2.782625
 H        -4.538355         0.640679         1.549885
 H        -4.182808        -1.172987         1.069877
 H        -1.177308        -1.719200         2.536701
 H        -2.122971        -2.356894         1.242343
 H         0.427800        -1.785235         0.594260
 H        -0.872903        -1.564882        -0.574109
 H        -0.070401         2.114348         0.929617
 H        -0.920945         2.081066        -0.551755
 H        -2.744096         1.891179         0.807615
