19
Iteration:  4689
 C        -3.861231        -0.606419         1.520805
 C        -2.412396        -0.087696         1.548626
 C        -1.320734        -1.100292         1.735854
 C        -0.602680        -1.391291         0.443070
 C         0.008339         0.024230        -0.038423
 O         0.942884         0.219406        -0.798776
 C        -0.510379         1.250699         0.589857
 C        -1.903304         1.194952         1.157459
 O        -2.185112         1.011321         2.561098
 H        -4.276691        -0.366221         0.558568
 H        -3.903014        -1.659443         1.865714
 H        -4.402085        -0.019594         2.255431
 H        -0.555480        -0.619560         2.287649
 H        -1.772305        -2.049701         2.154715
 H         0.303613        -2.009212         0.655747
 H        -1.172950        -1.786717        -0.380441
 H         0.236850         1.835198         1.207795
 H        -0.637862         1.971234        -0.166236
 H        -2.586992         1.891507         0.650356
