19
Iteration:   136
 C        -3.774935         0.039718         2.115524
 C        -2.423764        -0.044101         1.532763
 C        -1.861267        -1.457861         1.119740
 C        -0.697150        -1.296363         0.054340
 C         0.012702        -0.005477         0.157415
 O         1.153490         0.202029         0.497905
 C        -0.910500         1.162606        -0.111210
 C        -2.002644         1.223316         0.964846
 O        -1.417339         0.722129         2.271451
 H        -3.668649        -0.367598         3.121807
 H        -4.067070         1.080769         2.260368
 H        -4.507395        -0.355981         1.489545
 H        -1.616112        -2.009368         2.091255
 H        -2.650283        -2.046200         0.517555
 H         0.086958        -2.114747         0.262016
 H        -1.074360        -1.363069        -0.975068
 H        -0.293439         2.078674        -0.267086
 H        -1.336608         1.015716        -1.145792
 H        -2.596554         2.112043         1.141332
