19
Iteration:  2330
 C        -3.790285        -0.275180         1.437392
 C        -2.360544        -0.080037         1.413847
 C        -1.638141        -1.333177         1.191020
 C        -0.147589        -1.111245         1.036839
 C         0.005471         0.121264         0.165528
 O         0.482745        -0.083268        -0.962775
 C        -0.470514         1.429988         0.616903
 C        -1.888248         1.312249         1.249025
 O        -1.978816         0.643160         2.579814
 H        -3.982664        -0.809459         2.393638
 H        -4.359188         0.620885         1.412216
 H        -4.121064        -0.948654         0.597431
 H        -1.897435        -1.955115         2.021423
 H        -1.995777        -1.708608         0.225222
 H         0.270889        -1.021461         1.997548
 H         0.400910        -1.924846         0.544969
 H         0.273796         1.904810         1.436716
 H        -0.468524         2.211393        -0.197020
 H        -2.582664         2.176246         1.136501
