19
Iteration:  4429
 C        -3.811017        -0.348410         2.095806
 C        -2.410746        -0.238397         1.600138
 C        -1.630747        -1.462285         1.247965
 C        -0.596666        -1.183266         0.180271
 C        -0.031132         0.210567        -0.040206
 O         1.189061         0.259994         0.006249
 C        -0.815055         1.421402         0.077653
 C        -2.026071         1.216942         1.027726
 O        -1.735369         0.698034         2.391916
 H        -3.829598        -0.599197         3.202488
 H        -4.410429         0.640010         2.072187
 H        -4.466066        -1.167563         1.753081
 H        -1.070127        -1.766835         2.148810
 H        -2.260303        -2.278145         0.950603
 H         0.364924        -1.615405         0.469686
 H        -1.017460        -1.406558        -0.782257
 H        -0.126294         2.243429         0.259220
 H        -1.511818         1.643593        -0.795649
 H        -2.918071         1.862255         0.868460
