19
Iteration:  4438charge 0 multiplicity 1
 C        -3.840550        -0.445914         2.096669
 C        -2.409405        -0.207843         1.679879
 C        -1.644194        -1.392289         1.261869
 C        -0.628365        -1.211630         0.133631
 C         0.020150         0.142620         0.015538
 O         1.233852         0.269475        -0.046510
 C        -0.889523         1.454801         0.104326
 C        -2.018936         1.171922         1.024187
 O        -1.731995         0.792647         2.390214
 H        -3.860304        -0.781664         3.097662
 H        -4.248625         0.596544         1.960631
 H        -4.379601        -1.053091         1.358502
 H        -1.145988        -1.780114         2.123762
 H        -2.339046        -2.248138         1.018196
 H         0.248124        -1.952990         0.274196
 H        -0.978203        -1.546854        -0.853171
 H        -0.223596         2.323822         0.483016
 H        -1.171888         1.723222        -0.969843
 H        -2.845485         1.872346         1.007859
