19
Iteration:  1598
 C        -3.668199        -0.390304         0.845883
 C        -2.380795        -0.011004         1.643246
 C        -1.462963        -1.230962         1.855406
 C        -0.398668        -1.325063         0.779237
 C        -0.097221        -0.032550         0.165587
 O         0.180580         0.034673        -1.042717
 C        -0.144374         1.300255         0.889421
 C        -1.685027         1.239114         1.207141
 O        -2.139985         1.023114         2.571864
 H        -4.515453        -1.000637         1.265618
 H        -4.219334         0.412395         0.331124
 H        -3.195979        -1.011876         0.049502
 H        -0.938637        -1.114744         2.785634
 H        -1.986794        -2.132312         1.812013
 H         0.649432        -1.752441         1.061767
 H        -0.469887        -1.962892        -0.104966
 H         0.470495         1.431598         1.842129
 H         0.021747         1.934602        -0.043837
 H        -2.315913         1.967568         0.683496
