19
Iteration:  3103
 C        -4.059458        -0.400455         1.606309
 C        -2.504883        -0.096807         1.487676
 C        -1.681277        -1.337353         1.010727
 C        -0.100979        -0.986502         1.096701
 C         0.087438         0.097118         0.089243
 O         0.812641        -0.038240        -0.913082
 C        -0.639476         1.478091         0.492150
 C        -1.894532         1.291467         1.295157
 O        -1.840353         0.603173         2.555291
 H        -4.331294        -0.614022         2.685505
 H        -4.563244         0.536681         1.560822
 H        -4.361702        -1.181671         0.867507
 H        -1.908874        -2.273691         1.593447
 H        -1.985425        -1.545495        -0.085978
 H        -0.002331        -0.618657         2.140800
 H         0.533467        -1.832238         0.743273
 H         0.113147         1.883905         1.147434
 H        -0.863147         2.113468        -0.402517
 H        -2.529197         2.214988         1.307154
