19
Iteration:  1873
 C        -3.936432        -0.336154         1.860646
 C        -2.458054        -0.100041         1.595963
 C        -1.460313        -1.331703         1.539598
 C        -0.801044        -1.273524         0.093869
 C         0.068448         0.081588         0.030119
 O         1.254387         0.019415        -0.213483
 C        -0.612121         1.403489         0.357149
 C        -1.970491         1.197391         0.990917
 O        -1.955116         0.937766         2.401249
 H        -4.029345        -0.914295         2.783739
 H        -4.606140         0.633501         1.978943
 H        -4.366198        -0.943006         1.042241
 H        -0.662158        -1.454950         2.365590
 H        -2.105276        -2.296390         1.759669
 H         0.012221        -2.043476         0.031844
 H        -1.536967        -1.438752        -0.682580
 H         0.150869         1.969731         0.901993
 H        -0.731497         1.943495        -0.577252
 H        -2.723980         1.821309         0.558708
