19
Iteration:  3707charge 0 multiplicity 1
 C        -3.763217        -0.367298         2.221782
 C        -2.372224        -0.204081         1.541558
 C        -1.762553        -1.470547         0.954275
 C        -0.443606        -1.209496         0.213891
 C         0.075697         0.205606         0.273176
 O         1.273345         0.422885         0.027945
 C        -1.045277         1.276002         0.025999
 C        -2.161242         1.088046         1.045099
 O        -1.669806         0.814118         2.392979
 H        -3.577415        -0.961956         3.176121
 H        -4.177858         0.546510         2.587940
 H        -4.599934        -0.839652         1.602381
 H        -1.855485        -2.150297         1.780392
 H        -2.445074        -1.964097         0.109841
 H         0.294865        -2.026307         0.288546
 H        -0.642758        -1.222768        -0.834841
 H        -0.545415         2.301323        -0.034803
 H        -1.490558         0.989782        -0.975688
 H        -2.784970         2.009617         1.055612
