19
Iteration:   135charge 0 multiplicity 1
 C        -3.783166         0.045863         2.118118
 C        -2.418212        -0.044788         1.540878
 C        -1.865315        -1.468231         1.116070
 C        -0.697999        -1.288995         0.040014
 C         0.002414        -0.003501         0.151707
 O         1.156769         0.199947         0.513932
 C        -0.919012         1.160761        -0.120519
 C        -1.998132         1.221278         0.965373
 O        -1.413641         0.729012         2.271397
 H        -3.657533        -0.383274         3.144510
 H        -4.044275         1.053390         2.269018
 H        -4.506751        -0.340884         1.455075
 H        -1.574957        -2.018466         2.046843
 H        -2.635860        -2.057561         0.558196
 H         0.096255        -2.117759         0.265200
 H        -1.050863        -1.367657        -0.950983
 H        -0.290407         2.083100        -0.291732
 H        -1.336203         0.993907        -1.113639
 H        -2.573140         2.102687         1.119394
