19
Iteration:  1970
 C        -3.858069        -0.096927         2.184086
 C        -2.418443        -0.162253         1.546465
 C        -1.836593        -1.485918         1.144142
 C        -0.613255        -1.247496         0.257549
 C         0.052108         0.107586         0.242814
 O         1.255249         0.287072         0.274154
 C        -0.988884         1.295407        -0.102225
 C        -2.074683         1.127005         0.941662
 O        -1.439177         0.748166         2.166378
 H        -4.179528        -0.909865         2.786101
 H        -3.999605         0.827829         2.810170
 H        -4.539395        -0.050731         1.397784
 H        -1.539246        -2.088527         2.062839
 H        -2.633142        -2.188155         0.717790
 H         0.172079        -1.975211         0.533053
 H        -0.802096        -1.576687        -0.798024
 H        -0.453759         2.188774        -0.015707
 H        -1.215939         1.171882        -1.201793
 H        -2.845107         1.873859         0.882368
