19
Iteration:  2639charge 0 multiplicity 1
 C        -3.999795        -0.489829         1.525098
 C        -2.537282        -0.042829         1.657758
 C        -1.477457        -1.217142         1.599728
 C        -0.502201        -1.371875         0.379402
 C         0.129018        -0.022167        -0.074412
 O         1.158867         0.230655        -0.742122
 C        -0.548765         1.248191         0.474524
 C        -1.955230         1.271362         1.254399
 O        -2.138501         0.962926         2.674766
 H        -4.084701        -1.361334         2.122875
 H        -4.534322         0.372313         2.021841
 H        -4.217735        -0.613280         0.442887
 H        -0.841657        -1.257960         2.488610
 H        -2.027201        -2.118474         1.559418
 H         0.264342        -2.068031         0.582032
 H        -0.954316        -1.863621        -0.522910
 H         0.207613         1.712044         0.948230
 H        -0.687068         1.876019        -0.457264
 H        -2.612440         2.008804         0.877214
