19
Iteration:  4469charge 0 multiplicity 1
 C        -3.881780        -0.572007         1.996981
 C        -2.439979        -0.096595         1.668446
 C        -1.592089        -1.349356         1.311228
 C        -0.671347        -1.137583         0.091834
 C         0.143481         0.027571         0.103994
 O         1.280549         0.295099        -0.202991
 C        -0.840171         1.220942         0.260836
 C        -2.071231         1.173320         1.099547
 O        -1.793419         0.994049         2.416406
 H        -3.975163        -1.449229         2.578231
 H        -4.195317         0.220103         2.704429
 H        -4.451144        -0.603780         1.054641
 H        -0.925006        -1.513766         2.136356
 H        -2.277343        -2.279451         1.097900
 H        -0.176714        -2.170777        -0.139360
 H        -1.316641        -0.993971        -0.828142
 H        -0.168033         2.178935         0.347640
 H        -1.104880         1.167802        -0.794891
 H        -2.808233         1.917459         0.829107
