19
Iteration:  4694charge 0 multiplicity 1
 C        -3.824165        -0.569589         1.482057
 C        -2.406365        -0.101977         1.580238
 C        -1.301820        -1.115822         1.681342
 C        -0.573662        -1.396208         0.442204
 C        -0.004226         0.000908        -0.017299
 O         0.931831         0.214654        -0.810216
 C        -0.530980         1.244675         0.603498
 C        -1.938437         1.215610         1.207802
 O        -2.181626         1.040736         2.550948
 H        -4.337906        -0.495643         0.481299
 H        -3.947380        -1.618655         1.767501
 H        -4.381612        -0.075725         2.307737
 H        -0.558242        -0.648201         2.440537
 H        -1.607797        -2.004293         2.208358
 H         0.259329        -2.038511         0.707598
 H        -1.284168        -1.783626        -0.337659
 H         0.169391         1.711411         1.275569
 H        -0.619062         1.977926        -0.297822
 H        -2.610166         1.849810         0.609666
