19
Iteration:  4796charge 0 multiplicity 1
 C        -3.811018        -0.581580         1.425026
 C        -2.400054        -0.113034         1.633448
 C        -1.250189        -1.200028         1.765907
 C        -0.473703        -1.223008         0.501253
 C        -0.067185         0.068226        -0.090426
 O         0.702275         0.170976        -1.021433
 C        -0.338862         1.210530         0.842123
 C        -1.856519         1.197452         1.112120
 O        -2.318145         1.091291         2.531928
 H        -3.997352        -1.632218         1.360344
 H        -4.365084        -0.417052         2.434341
 H        -4.308351        -0.105473         0.576464
 H        -0.704564        -1.102340         2.655874
 H        -1.656620        -2.256973         1.905257
 H         0.556819        -1.645834         0.810872
 H        -0.872108        -1.878131        -0.285604
 H         0.153321         0.794687         1.776652
 H        -0.026862         2.133871         0.554978
 H        -2.439398         1.910029         0.530508
