19
Iteration:  4422charge 0 multiplicity 1
 C        -3.845659        -0.271875         2.133482
 C        -2.443972        -0.187454         1.472818
 C        -1.601568        -1.532466         1.244694
 C        -0.547928        -1.154019         0.187906
 C        -0.041163         0.240442        -0.012791
 O         1.174313         0.271676         0.031629
 C        -0.855368         1.411836         0.043883
 C        -2.023973         1.152444         1.086189
 O        -1.714031         0.662878         2.390288
 H        -3.598818        -0.333780         3.264327
 H        -4.491534         0.561095         2.091938
 H        -4.385213        -1.189801         1.853831
 H        -1.105801        -1.769376         2.254160
 H        -2.262479        -2.311933         0.881133
 H         0.329274        -1.741140         0.343862
 H        -0.964303        -1.557105        -0.789171
 H        -0.204736         2.250163         0.158676
 H        -1.405674         1.568108        -0.861648
 H        -2.805411         1.947260         0.967789
