19
Iteration:  4641
 C        -3.814490        -0.533437         1.682624
 C        -2.382637        -0.155107         1.771558
 C        -1.398660        -1.316467         1.620273
 C        -0.507601        -1.242652         0.273866
 C         0.131370         0.120757         0.012454
 O         1.078681         0.074850        -0.762452
 C        -0.657505         1.327184         0.619716
 C        -2.077543         1.079013         1.028116
 O        -2.156168         1.155784         2.505642
 H        -4.116221        -0.738384         0.617732
 H        -4.052512        -1.312433         2.470160
 H        -4.463120         0.350534         2.029750
 H        -0.837643        -1.294330         2.558620
 H        -2.062122        -2.149545         1.427967
 H         0.377558        -1.931028         0.301162
 H        -1.273233        -1.336247        -0.500266
 H        -0.263753         1.829398         1.557086
 H        -0.629153         2.173047        -0.113030
 H        -2.814292         1.656250         0.431819
