19
Iteration:   576
 C        -4.007542        -0.249944         1.635331
 C        -2.510825        -0.125767         1.704482
 C        -1.433344        -1.320873         1.564890
 C        -0.546959        -1.342088         0.304578
 C         0.125959         0.028530         0.076347
 O         1.108695         0.085639        -0.673406
 C        -0.584898         1.275059         0.526373
 C        -1.922993         1.179739         1.039328
 O        -2.075881         0.970130         2.561996
 H        -4.501271        -0.307769         2.607102
 H        -4.368650         0.738573         1.323555
 H        -4.205835        -1.008628         0.860404
 H        -0.804004        -1.213228         2.438966
 H        -1.882304        -2.273934         1.655848
 H         0.210842        -2.162321         0.265612
 H        -1.223146        -1.374994        -0.635797
 H         0.093686         1.756999         1.339784
 H        -0.498973         1.985444        -0.292305
 H        -2.637803         1.912315         0.783979
