19
Iteration:   708
 C        -3.689544        -0.130929         2.222696
 C        -2.386942        -0.103398         1.479733
 C        -1.761224        -1.456178         1.107879
 C        -0.652396        -1.294204         0.045941
 C        -0.023936         0.106032         0.167040
 O         1.132728         0.167405         0.555290
 C        -1.024659         1.333162        -0.098827
 C        -2.111782         1.211784         0.926178
 O        -1.422759         0.743619         2.139821
 H        -3.617015        -0.448231         3.293287
 H        -4.026025         0.847484         2.245821
 H        -4.449836        -0.822941         1.769775
 H        -1.276622        -1.752506         2.082779
 H        -2.485801        -2.223345         0.903283
 H         0.114775        -2.137571         0.182681
 H        -1.059230        -1.403834        -0.990299
 H        -0.517052         2.422136        -0.022158
 H        -1.358189         1.133056        -1.120834
 H        -2.717233         2.095045         1.124898
