19
Iteration:  2456charge 0 multiplicity 1
 C        -3.957919        -0.426060         1.426506
 C        -2.458872        -0.097680         1.522571
 C        -1.521063        -1.293766         1.625938
 C        -0.287867        -1.249870         0.651621
 C        -0.005363         0.111865        -0.070817
 O         0.773616         0.115778        -0.970815
 C        -0.398113         1.298025         0.731373
 C        -1.854102         1.208097         1.194973
 O        -2.129695         0.945953         2.583029
 H        -4.255361        -1.191233         2.145585
 H        -4.813827         0.413669         1.633125
 H        -4.251654        -0.757580         0.458472
 H        -1.199130        -1.393629         2.704321
 H        -2.031772        -2.278569         1.459584
 H         0.704468        -1.457888         1.270818
 H        -0.293845        -2.000106        -0.177311
 H         0.326516         1.160378         1.566520
 H        -0.056806         2.222615         0.223148
 H        -2.507305         1.977609         0.699260
