19
Iteration:   134
 C        -3.789906         0.050873         2.122202
 C        -2.412680        -0.046129         1.548627
 C        -1.869486        -1.477062         1.111649
 C        -0.697317        -1.284172         0.028735
 C        -0.006853        -0.000370         0.147107
 O         1.159789         0.197586         0.528910
 C        -0.926847         1.160186        -0.129899
 C        -1.991262         1.218530         0.965473
 O        -1.410751         0.735666         2.270919
 H        -3.656397        -0.401025         3.160701
 H        -4.025473         1.042880         2.280098
 H        -4.516948        -0.337518         1.417462
 H        -1.535248        -2.023370         1.998194
 H        -2.621120        -2.065502         0.603368
 H         0.093345        -2.110177         0.261852
 H        -1.035622        -1.375620        -0.940925
 H        -0.292843         2.082546        -0.307940
 H        -1.342085         0.972273        -1.086306
 H        -2.557275         2.101206         1.096691
