19
Iteration:  3248charge 0 multiplicity 1
 C        -3.940780        -0.452504         1.334517
 C        -2.468786        -0.083193         1.480639
 C        -1.385062        -1.319139         1.639862
 C        -0.077104        -1.278526         0.757111
 C         0.082301         0.119379         0.100722
 O         0.416612         0.161051        -1.037697
 C        -0.365838         1.340521         0.855069
 C        -1.874168         1.214702         1.113531
 O        -2.144547         0.894740         2.489132
 H        -4.220058        -1.509906         1.356810
 H        -4.670888         0.017863         2.172250
 H        -4.271749        -0.151881         0.329680
 H        -1.053026        -1.338525         2.678298
 H        -1.956175        -2.332747         1.375929
 H         0.883686        -1.429087         1.302513
 H        -0.109738        -1.970390        -0.087279
 H         0.010508         1.235477         1.923601
 H        -0.127247         2.310653         0.453970
 H        -2.369706         2.069750         0.655138
