19
Iteration:  2276charge 0 multiplicity 1
 C        -4.008980        -0.239613         1.700836
 C        -2.514517        -0.110028         1.384301
 C        -1.658193        -1.212115         0.968349
 C        -0.143480        -0.943170         1.137685
 C         0.111041         0.129926         0.116630
 O         0.723799        -0.157040        -0.925513
 C        -0.528994         1.421406         0.547684
 C        -1.866629         1.231539         1.254540
 O        -1.917321         0.515342         2.531989
 H        -4.046023        -0.731850         2.694620
 H        -4.399692         0.737766         1.687045
 H        -4.485162        -1.009757         1.052966
 H        -1.966107        -2.106043         1.454509
 H        -1.881623        -1.346271        -0.091108
 H        -0.010030        -0.646138         2.142252
 H         0.472559        -1.807627         0.848990
 H         0.209900         1.998577         1.113921
 H        -0.809031         2.028040        -0.346031
 H        -2.537006         2.077371         1.185426
