19
Iteration:    58charge 0 multiplicity 1
 C        -3.725425        -0.222790         2.324310
 C        -2.423799         0.000446         1.460764
 C        -1.771687        -1.396643         1.149502
 C        -0.785539        -1.279450        -0.031780
 C         0.033342         0.012954         0.092757
 O         1.096105        -0.099592         0.701997
 C        -0.824046         1.273962        -0.146135
 C        -2.030189         1.261021         0.844764
 O        -1.500969         1.045823         2.116062
 H        -3.686428        -1.314737         2.647310
 H        -3.573409         0.338823         3.156773
 H        -4.635731         0.020373         1.842701
 H        -1.313831        -1.693019         2.165136
 H        -2.566221        -2.184156         0.898274
 H         0.068038        -2.115361        -0.093939
 H        -1.294210        -1.310322        -0.953494
 H        -0.211162         2.183522         0.230886
 H        -1.098684         1.383956        -1.181804
 H        -2.725151         2.041188         0.670175
