19
Iteration:  4537
 C        -3.830630        -0.503715         1.731560
 C        -2.363423        -0.138805         1.726909
 C        -1.432504        -1.308383         1.555009
 C        -0.762282        -1.298795         0.153577
 C         0.034172         0.032936         0.066518
 O         1.166402         0.309175        -0.370415
 C        -0.705797         1.311190         0.339902
 C        -2.082781         1.158143         1.011137
 O        -1.911809         0.940690         2.513315
 H        -3.958700        -1.557447         1.764714
 H        -4.098738        -0.186999         2.758546
 H        -4.299087        -0.020891         0.899475
 H        -0.630105        -1.133576         2.268606
 H        -1.866358        -2.303681         1.907847
 H        -0.298846        -2.247838        -0.226127
 H        -1.427725        -1.100643        -0.730917
 H        -0.020681         2.095764         0.776666
 H        -0.875833         1.735693        -0.705108
 H        -2.732118         1.980022         0.774909
