19
Iteration:  3706
 C        -3.763775        -0.366516         2.234644
 C        -2.375006        -0.196072         1.537104
 C        -1.753574        -1.473366         0.942071
 C        -0.449263        -1.217593         0.206519
 C         0.077203         0.210139         0.277518
 O         1.273030         0.423490         0.038107
 C        -1.044466         1.262163         0.017827
 C        -2.171946         1.095470         1.048486
 O        -1.667642         0.814776         2.388569
 H        -3.572873        -0.958294         3.165221
 H        -4.217808         0.561093         2.561006
 H        -4.537200        -0.858353         1.629211
 H        -1.831362        -2.145565         1.769738
 H        -2.457240        -1.944862         0.154091
 H         0.307204        -2.037511         0.278696
 H        -0.644125        -1.236520        -0.866367
 H        -0.545614         2.301821        -0.034469
 H        -1.463955         1.003757        -0.943356
 H        -2.790826         2.024250         1.088783
