19
Iteration:  4545
 C        -3.782667        -0.551706         1.753939
 C        -2.375501        -0.127704         1.695063
 C        -1.424715        -1.348659         1.582970
 C        -0.807731        -1.294469         0.167268
 C         0.108142         0.041287         0.035332
 O         1.202773         0.312007        -0.421553
 C        -0.746207         1.313555         0.309360
 C        -1.979820         1.187044         1.101272
 O        -2.009047         0.987682         2.516779
 H        -4.036476        -1.564317         1.595762
 H        -4.220378        -0.144299         2.731009
 H        -4.299280        -0.078531         0.880138
 H        -0.661239        -1.286908         2.345708
 H        -2.140434        -2.274719         1.635901
 H        -0.213094        -2.237724        -0.138365
 H        -1.675792        -1.056537        -0.480782
 H         0.074171         1.965163         0.788008
 H        -0.893400         1.647516        -0.655468
 H        -2.781735         1.895758         0.821446
