19
Iteration:  4050charge 0 multiplicity 1
 C        -3.876893        -0.460641         1.467426
 C        -2.344175        -0.185363         1.494107
 C        -1.579605        -1.387431         1.130613
 C        -0.110928        -1.016688         1.004204
 C         0.015356         0.188879         0.133558
 O         0.324903         0.133872        -1.034834
 C        -0.441163         1.502373         0.707950
 C        -1.806534         1.173835         1.286946
 O        -1.933043         0.640343         2.585166
 H        -4.166058        -0.905104         2.440740
 H        -4.378461         0.546882         1.383814
 H        -4.049619        -1.251813         0.782619
 H        -1.738093        -2.227571         1.732830
 H        -1.868905        -1.670376         0.067699
 H         0.174344        -0.792013         2.014025
 H         0.642363        -1.707092         0.571153
 H         0.202738         2.002828         1.438124
 H        -0.657169         2.185053        -0.178419
 H        -2.582596         1.928257         1.013500
