19
Iteration:  1230charge 0 multiplicity 1
 C        -3.848352        -0.185573         2.185941
 C        -2.513350        -0.087014         1.570356
 C        -1.956185        -1.287873         0.712856
 C        -0.394021        -1.265334         0.728850
 C         0.085258         0.104719         0.213526
 O         1.244074         0.310354        -0.181035
 C        -0.926516         1.248632         0.088724
 C        -2.047418         1.158637         1.037009
 O        -1.547613         0.564533         2.321340
 H        -3.970777        -1.159202         2.606579
 H        -4.120730         0.577573         2.992176
 H        -4.673125        -0.076730         1.504043
 H        -2.328551        -2.288169         1.144455
 H        -2.355780        -1.107887        -0.310861
 H        -0.100737        -1.457876         1.765926
 H        -0.058494        -2.027960        -0.017409
 H        -0.272519         2.076140         0.281132
 H        -1.204599         1.452472        -1.027723
 H        -2.687100         2.057104         1.155702
