19
Iteration:  3763charge 0 multiplicity 1
 C        -3.949852        -0.399058         1.988774
 C        -2.502571        -0.219553         1.479073
 C        -1.715168        -1.388817         1.148525
 C        -0.337938        -1.197112         0.587872
 C         0.029911         0.207524         0.066834
 O         1.167762         0.430409        -0.378299
 C        -0.956506         1.349884         0.154624
 C        -2.004389         1.203355         1.224932
 O        -1.626170         0.605378         2.408399
 H        -4.110014        -1.509452         2.156661
 H        -4.259383         0.136710         2.857721
 H        -4.716074        -0.201987         1.140884
 H        -1.796202        -1.860714         2.112980
 H        -2.223499        -2.009883         0.290891
 H         0.386322        -1.454260         1.360373
 H        -0.190968        -1.855336        -0.234698
 H        -0.258872         2.182218         0.324904
 H        -1.386776         1.534466        -0.889166
 H        -2.713761         2.078414         1.371863
