19
Iteration:  4476charge 0 multiplicity 1
 C        -3.834614        -0.541425         2.006474
 C        -2.441156        -0.142317         1.659161
 C        -1.549367        -1.290844         1.338075
 C        -0.718412        -1.215367         0.057367
 C         0.131479         0.103062         0.126713
 O         1.287144         0.265002        -0.224478
 C        -0.769027         1.257186         0.197812
 C        -2.022920         1.161447         1.069848
 O        -1.890250         0.959793         2.467051
 H        -4.096156        -1.607248         2.391505
 H        -4.235523         0.134316         2.744494
 H        -4.543348        -0.498878         1.148282
 H        -0.876154        -1.545997         2.220094
 H        -2.220149        -2.109107         1.190714
 H        -0.155426        -2.097721         0.020576
 H        -1.412557        -0.996847        -0.750983
 H        -0.278908         2.162533         0.387426
 H        -1.178204         1.270637        -0.829136
 H        -2.746370         2.003246         0.922619
