19
Iteration:  1640
 C        -3.686943        -0.200028         0.869235
 C        -2.320052        -0.007789         1.512697
 C        -1.325012        -1.213939         1.834312
 C        -0.162373        -1.302330         0.800302
 C        -0.053167        -0.053398         0.056747
 O         0.036039        -0.096931        -1.149029
 C        -0.151209         1.234879         1.031648
 C        -1.664837         1.294732         1.283580
 O        -2.380159         0.959915         2.537257
 H        -4.284078        -0.971884         1.536580
 H        -4.279348         0.716896         0.863761
 H        -3.556414        -0.499725        -0.243924
 H        -1.042232        -1.026389         2.890061
 H        -1.924173        -2.223234         1.868749
 H         0.807963        -1.325981         1.396204
 H        -0.084656        -2.275313         0.316864
 H         0.305580         0.877007         1.928387
 H         0.216838         2.182606         0.675579
 H        -2.197176         1.994765         0.656082
