19
Iteration:  3792charge 0 multiplicity 1
 C        -3.947808        -0.339844         1.869680
 C        -2.421133        -0.248973         1.630116
 C        -1.715820        -1.398891         0.972804
 C        -0.211986        -1.146281         0.751217
 C         0.129393         0.249781         0.101618
 O         1.064675         0.323312        -0.652689
 C        -0.933235         1.377407         0.226766
 C        -2.014951         1.125729         1.231786
 O        -1.763612         0.650102         2.618524
 H        -4.220673        -1.378471         2.053777
 H        -4.324345         0.309721         2.650939
 H        -4.438142        -0.165799         0.944437
 H        -2.024198        -2.313081         1.563653
 H        -2.162465        -1.570040         0.053608
 H         0.219617        -1.183745         1.789648
 H         0.327553        -1.924330         0.095813
 H        -0.370290         2.370064         0.272575
 H        -1.348146         1.396153        -0.742346
 H        -2.934872         1.742585         1.241355
