19
Iteration:  2300
 C        -4.136204        -0.230099         1.577163
 C        -2.522742        -0.156483         1.527074
 C        -1.606352        -1.366646         0.887902
 C        -0.076779        -1.053990         1.216749
 C         0.208833         0.153882         0.210920
 O         0.481850        -0.053353        -0.947286
 C        -0.479200         1.420728         0.548135
 C        -1.893007         1.192911         1.201490
 O        -1.750119         0.676014         2.533570
 H        -4.421500        -0.678242         2.554388
 H        -4.424792         0.734926         1.377484
 H        -4.409328        -1.070897         0.872195
 H        -1.967191        -2.286117         1.313858
 H        -1.845838        -1.269424        -0.148084
 H        -0.207834        -0.729117         2.268759
 H         0.672462        -1.876663         1.113743
 H         0.033221         1.899297         1.242792
 H        -0.433436         2.059985        -0.404185
 H        -2.504364         1.999094         1.164270
