19
Iteration:  4122
 C        -3.959917        -0.431815         1.772425
 C        -2.496506        -0.125105         1.541859
 C        -1.692415        -1.375605         0.961040
 C        -0.205975        -1.052632         0.901321
 C         0.134674         0.197949         0.017373
 O         0.884579         0.158451        -0.943956
 C        -0.732507         1.441021         0.422078
 C        -1.892353         1.247968         1.373016
 O        -1.868204         0.560010         2.654051
 H        -4.032532        -1.094271         2.612714
 H        -4.587755         0.482514         1.912694
 H        -4.217315        -1.115014         0.906467
 H        -1.802315        -2.274800         1.737750
 H        -2.228108        -1.641530         0.056462
 H        -0.013424        -0.610712         1.941044
 H         0.464461        -1.927671         0.821698
 H         0.044898         2.132192         0.769005
 H        -1.062643         1.835320        -0.583249
 H        -2.546043         2.173488         1.364062
