19
Iteration:  2066charge 0 multiplicity 1
 C        -3.692730        -0.148817         2.280317
 C        -2.435946        -0.108477         1.581886
 C        -2.097873        -1.328916         0.762154
 C        -0.624472        -1.227769         0.540482
 C         0.058424         0.182292         0.331663
 O         1.251037         0.395980         0.326532
 C        -1.022493         1.157711        -0.261496
 C        -2.069501         1.096126         0.921275
 O        -1.262760         0.573718         2.177676
 H        -3.757276        -0.467810         3.371169
 H        -4.316679         0.912229         2.236784
 H        -4.348258        -0.930823         1.820657
 H        -2.497517        -2.208671         1.288704
 H        -2.738879        -1.149111        -0.137667
 H        -0.036975        -1.854081         1.242947
 H        -0.400258        -1.865838        -0.365307
 H        -0.642521         2.132823        -0.546542
 H        -1.570892         0.679056        -1.224883
 H        -2.711015         2.055879         1.171609
