19
Iteration:  4551
 C        -3.808201        -0.553071         1.765380
 C        -2.361374        -0.136758         1.658887
 C        -1.417454        -1.352557         1.582909
 C        -0.791349        -1.258542         0.174822
 C         0.114128         0.064886        -0.002031
 O         1.228964         0.267797        -0.451115
 C        -0.724571         1.301214         0.317348
 C        -1.938391         1.206851         1.158731
 O        -2.056144         1.017083         2.535025
 H        -3.956540        -1.699087         1.593431
 H        -4.411270        -0.215869         2.570156
 H        -4.448733        -0.045291         1.028479
 H        -0.713945        -1.537152         2.451765
 H        -2.016549        -2.186908         1.561181
 H        -0.241318        -2.111228        -0.048836
 H        -1.717192        -1.162416        -0.416338
 H        -0.075877         1.992147         0.778841
 H        -1.047226         1.733818        -0.739925
 H        -2.855761         1.704779         0.795004
