19
Iteration:  1430charge 0 multiplicity 1
 C        -3.917906        -0.320819         1.756736
 C        -2.442546        -0.121703         1.675565
 C        -1.484797        -1.339254         1.506789
 C        -0.744909        -1.274105         0.133743
 C         0.091278         0.058089         0.028230
 O         1.286620        -0.008866        -0.168888
 C        -0.711901         1.341611         0.143551
 C        -2.009258         1.262321         1.120841
 O        -1.904806         0.987089         2.507958
 H        -4.253057        -1.021196         2.552419
 H        -4.505364         0.597999         1.982200
 H        -4.387775        -0.618512         0.791562
 H        -0.677255        -1.280151         2.275842
 H        -1.951699        -2.347016         1.715541
 H        -0.072381        -2.135449         0.055650
 H        -1.390599        -1.454830        -0.767823
 H         0.006829         2.195527         0.317794
 H        -1.257707         1.453814        -0.778589
 H        -2.823502         1.968921         0.841633
