19
Iteration:  4940charge 0 multiplicity 1
 C        -3.746178        -0.548070         1.501063
 C        -2.367854        -0.113738         1.621720
 C        -1.276329        -1.189295         1.791032
 C        -0.483379        -1.336584         0.410097
 C        -0.033253         0.040164        -0.020801
 O         0.666349         0.251276        -0.965093
 C        -0.427687         1.281735         0.845249
 C        -1.867110         1.263696         1.145320
 O        -2.251842         0.948232         2.436619
 H        -4.479879        -0.244364         2.331032
 H        -4.160948         0.012600         0.646543
 H        -3.694715        -1.613512         1.154960
 H        -0.618759        -0.844292         2.548963
 H        -1.602583        -2.253832         2.053613
 H         0.382448        -2.083238         0.437473
 H        -1.263226        -1.577977        -0.324583
 H         0.049677         0.901956         1.864732
 H        -0.054229         2.194936         0.450111
 H        -2.649419         1.835604         0.533418
