19
Iteration:  1943charge 0 multiplicity 1
 C        -3.897203        -0.107412         2.055877
 C        -2.476409        -0.093745         1.473551
 C        -1.709863        -1.399959         1.255825
 C        -0.552281        -1.327468         0.175352
 C         0.037400         0.004943         0.029172
 O         1.234042         0.309842         0.162636
 C        -0.911790         1.268203        -0.071445
 C        -1.904631         1.172257         1.050379
 O        -1.700879         0.730043         2.418100
 H        -3.839882        -0.827739         2.957651
 H        -4.188226         0.814806         2.521704
 H        -4.828801        -0.487452         1.446112
 H        -1.373563        -1.766587         2.199997
 H        -2.428624        -2.152743         1.066260
 H         0.235447        -2.028236         0.491096
 H        -0.928282        -1.747958        -0.761708
 H        -0.122428         2.119951         0.104575
 H        -1.298439         1.464374        -1.085734
 H        -2.621633         2.056285         0.937848
