19
Iteration:   230
 C        -4.016681        -0.117666         1.864661
 C        -2.488171        -0.012457         1.531193
 C        -1.915016        -1.308942         0.931916
 C        -0.332420        -1.327046         0.867389
 C         0.096652        -0.095194         0.151971
 O         1.113856         0.073610        -0.544011
 C        -0.706282         1.257626         0.270603
 C        -1.876502         1.252931         1.148894
 O        -1.750319         0.818346         2.480947
 H        -4.072449        -0.952856         2.653990
 H        -4.420554         0.759079         2.226766
 H        -4.520863        -0.330479         0.845781
 H        -2.209631        -2.126187         1.603976
 H        -2.364963        -1.443622        -0.053892
 H         0.129752        -1.189615         1.872441
 H        -0.008251        -2.320856         0.525964
 H         0.089688         2.009469         0.612314
 H        -1.068070         1.590550        -0.741182
 H        -2.358020         2.219260         1.042884
