19
Iteration:  1180charge 0 multiplicity 1
 C        -4.001968        -0.352073         1.775495
 C        -2.583900        -0.053130         1.582047
 C        -1.843474        -1.221387         1.059895
 C        -0.331908        -1.129854         0.809477
 C         0.171943         0.074164         0.046475
 O         1.129651         0.134487        -0.692524
 C        -0.707282         1.334151         0.297618
 C        -1.917198         1.219555         1.227077
 O        -1.774315         0.583806         2.594583
 H        -4.168176        -0.981418         2.679180
 H        -4.670941         0.539602         2.045999
 H        -4.470236        -0.765715         0.873458
 H        -2.050200        -1.979872         1.789197
 H        -2.253996        -1.492023         0.072760
 H         0.223092        -0.922598         1.747180
 H        -0.020849        -2.091912         0.306209
 H         0.021300         2.194485         0.598141
 H        -1.048403         1.677410        -0.633849
 H        -2.528304         2.145943         1.289548
