19
Iteration:  2820charge 0 multiplicity 1
 C        -3.784753        -0.208240         2.100379
 C        -2.343490        -0.170384         1.625744
 C        -1.667034        -1.430331         1.198331
 C        -0.654886        -1.223361         0.038105
 C        -0.021231         0.138219         0.112877
 O         1.137178         0.374868         0.463108
 C        -1.025166         1.166333        -0.224821
 C        -1.953133         1.128697         0.973941
 O        -1.533586         0.776437         2.292027
 H        -3.891218        -0.970462         2.976277
 H        -3.984406         0.748985         2.517874
 H        -4.572717        -0.526437         1.305735
 H        -1.321669        -1.881031         2.126814
 H        -2.471449        -2.137896         0.833928
 H         0.185133        -1.955039         0.241183
 H        -1.262894        -1.352150        -0.862417
 H        -0.605507         2.247132        -0.372847
 H        -1.513849         0.896692        -1.106132
 H        -2.657733         1.987184         1.166874
