19
Iteration:   169charge 0 multiplicity 1
 C        -3.938007        -0.127678         2.179527
 C        -2.583257        -0.036476         1.507300
 C        -1.992280        -1.421168         1.094519
 C        -0.649425        -1.279786         0.281704
 C         0.083264         0.052756         0.159517
 O         1.357153         0.097495         0.102119
 C        -0.695360         1.287196         0.008806
 C        -1.964415         1.266247         0.970127
 O        -1.552060         0.775789         2.284000
 H        -3.888790        -0.565761         3.166043
 H        -4.505192         0.822528         2.305149
 H        -4.546340        -0.866216         1.780050
 H        -1.921490        -1.965607         2.073799
 H        -2.731921        -2.069527         0.483786
 H         0.160014        -1.858893         0.818529
 H        -0.650540        -1.728110        -0.716149
 H        -0.145649         2.199599         0.245018
 H        -1.049053         1.272871        -1.059439
 H        -2.562699         2.175875         1.096317
