19
Iteration:  3598charge 0 multiplicity 1
 C        -3.721026        -0.353327         2.369570
 C        -2.388737        -0.256196         1.607934
 C        -1.602127        -1.464150         1.041408
 C        -0.638562        -1.194171        -0.129132
 C         0.006385         0.223534         0.039908
 O         1.086814         0.398599         0.550358
 C        -0.942026         1.298995        -0.181196
 C        -2.008861         1.132717         0.967739
 O        -1.629363         0.787155         2.278058
 H        -3.399478        -0.390615         3.467331
 H        -4.415252         0.550076         2.253805
 H        -4.205476        -1.311722         2.041651
 H        -1.337061        -1.979096         1.951837
 H        -2.292154        -2.104074         0.343750
 H         0.097893        -1.939210         0.192441
 H        -1.123563        -1.441787        -1.012120
 H        -0.553354         2.400998        -0.192482
 H        -1.561746         1.031373        -1.109896
 H        -2.830243         1.855462         1.018575
