19
Iteration:   987charge 0 multiplicity 1
 C        -3.825834        -0.336397         1.157452
 C        -2.375184        -0.079413         1.530417
 C        -1.539844        -1.331518         1.262616
 C        -0.082630        -1.130893         0.990180
 C         0.022638         0.113271         0.106615
 O         0.134520        -0.034743        -1.093554
 C        -0.251977         1.438034         0.822993
 C        -1.749634         1.218643         1.359372
 O        -2.054610         0.757384         2.655832
 H        -4.323725        -0.993380         1.904306
 H        -4.441273         0.550340         1.163012
 H        -3.862664        -0.929410         0.242111
 H        -1.791881        -2.031612         2.065770
 H        -2.057671        -1.741860         0.412244
 H         0.473720        -0.961276         1.933018
 H         0.458630        -1.932594         0.450724
 H         0.445871         1.636337         1.700230
 H        -0.079212         2.367543         0.140656
 H        -2.360654         2.048896         1.006697
