19
Iteration:  4970charge 0 multiplicity 1
 C        -3.865279        -0.709318         1.518313
 C        -2.506223        -0.160097         1.713508
 C        -1.381208        -1.160645         1.752584
 C        -0.566809        -1.178253         0.332278
 C         0.130483         0.068714        -0.069071
 O         0.843825         0.189181        -1.075378
 C        -0.370184         1.265957         0.854312
 C        -1.803168         1.102773         1.215550
 O        -2.274771         1.187373         2.564953
 H        -4.412970        -0.885908         2.416311
 H        -4.531418        -0.118213         0.785349
 H        -3.844729        -1.668676         1.063012
 H        -0.599953        -0.896914         2.497160
 H        -1.671162        -2.259896         1.767389
 H         0.202305        -1.979849         0.466574
 H        -1.191168        -1.595098        -0.465292
 H         0.298021         1.283638         1.789256
 H        -0.373863         2.110876         0.275649
 H        -2.506190         1.538757         0.530828
