19
Iteration:  2455
 C        -3.968159        -0.439245         1.422673
 C        -2.467545        -0.095770         1.513982
 C        -1.522963        -1.294308         1.631374
 C        -0.295537        -1.246349         0.666058
 C         0.002009         0.112629        -0.065448
 O         0.772961         0.118900        -0.980892
 C        -0.392878         1.298582         0.729076
 C        -1.854719         1.206365         1.197849
 O        -2.120578         0.944463         2.576553
 H        -4.244450        -1.199140         2.143915
 H        -4.796550         0.394469         1.665219
 H        -4.267535        -0.731377         0.454325
 H        -1.214615        -1.385582         2.698182
 H        -2.026185        -2.255210         1.459653
 H         0.685648        -1.469401         1.240362
 H        -0.297435        -2.001019        -0.143890
 H         0.350945         1.183288         1.608355
 H        -0.032744         2.250598         0.202863
 H        -2.473607         1.986469         0.757609
