19
Iteration:   388charge 0 multiplicity 1
 C        -3.915966        -0.188696         1.074226
 C        -2.456396        -0.068960         1.617300
 C        -1.452780        -1.335299         1.618419
 C         0.032576        -1.266145         0.924564
 C         0.074169        -0.042090         0.082687
 O         0.139534         0.048973        -1.132361
 C        -0.228765         1.193455         0.975856
 C        -1.701287         1.184506         1.193596
 O        -2.190016         0.989799         2.481114
 H        -4.661365        -0.368459         1.848461
 H        -4.370013         0.932363         0.714904
 H        -4.057232        -0.757465         0.167828
 H        -1.221034        -1.558642         2.610853
 H        -1.959515        -2.143567         1.210836
 H         0.821538        -1.278953         1.663520
 H         0.129791        -2.118547         0.127640
 H         0.227735         1.186188         2.028570
 H         0.064298         2.172940         0.474236
 H        -2.278558         1.873717         0.498798
