19
Iteration:  4113charge 0 multiplicity 1
 C        -4.017086        -0.450980         1.745291
 C        -2.555858        -0.077631         1.509726
 C        -1.633415        -1.348468         1.010953
 C        -0.161616        -1.028972         1.018700
 C         0.149318         0.192364         0.051502
 O         0.797134         0.204683        -1.012418
 C        -0.651095         1.402431         0.393603
 C        -1.819652         1.221791         1.368505
 O        -1.871463         0.495945         2.648411
 H        -4.094931        -0.888471         2.690392
 H        -4.761001         0.432453         1.754373
 H        -4.405082        -1.119205         0.957553
 H        -1.900921        -2.283564         1.660985
 H        -2.006250        -1.567671        -0.001523
 H         0.004940        -0.750754         2.090974
 H         0.356265        -1.989870         0.763987
 H         0.143697         2.107705         0.657330
 H        -1.238973         1.985780        -0.467770
 H        -2.492834         2.211893         1.307713
