19
Iteration:  1263charge 0 multiplicity 1
 C        -3.815260        -0.149142         2.316686
 C        -2.539790        -0.112372         1.543312
 C        -2.012042        -1.356069         0.676333
 C        -0.493150        -1.243657         0.509167
 C         0.054987         0.148337         0.202823
 O         1.231230         0.392488         0.228394
 C        -0.987729         1.150486        -0.167752
 C        -1.932192         1.156548         1.060864
 O        -1.420238         0.606911         2.247720
 H        -3.724028        -1.091455         2.787035
 H        -3.822341         0.690891         3.115910
 H        -4.716212        -0.129217         1.726677
 H        -2.393050        -2.279179         1.227302
 H        -2.578955        -1.448704        -0.294558
 H         0.058777        -1.611790         1.371652
 H        -0.115109        -1.990516        -0.250630
 H        -0.549091         2.095086        -0.338194
 H        -1.739937         0.828959        -0.949617
 H        -2.525826         2.102015         1.084785
