19
Iteration:   243charge 0 multiplicity 1
 C        -3.986085        -0.082907         1.756255
 C        -2.549004         0.011249         1.512185
 C        -1.867675        -1.278469         1.009917
 C        -0.348764        -1.195291         0.992947
 C         0.102086         0.012573         0.148683
 O         1.072477        -0.022979        -0.656617
 C        -0.681049         1.252982         0.217732
 C        -1.907648         1.261738         1.159959
 O        -1.706459         0.639792         2.545118
 H        -4.333054        -0.983466         2.424367
 H        -4.383195         0.829196         2.231073
 H        -4.561135        -0.292075         0.805885
 H        -2.175225        -2.087284         1.623279
 H        -2.215619        -1.510378         0.059031
 H        -0.045428        -1.079531         2.099008
 H         0.159469        -2.013720         0.562246
 H         0.042103         1.979888         0.740477
 H        -0.799505         1.646972        -0.768510
 H        -2.534515         2.129013         1.211010
