19
Iteration:  3522charge 0 multiplicity 1
 C        -3.883466        -0.376693         2.032066
 C        -2.426931        -0.199965         1.653782
 C        -1.520031        -1.407491         1.376239
 C        -0.571236        -1.194220         0.151306
 C         0.113025         0.204603        -0.034953
 O         1.299808         0.320303        -0.065609
 C        -0.876269         1.344007         0.041355
 C        -2.052914         1.110716         1.041334
 O        -1.919246         0.789787         2.458893
 H        -4.107463        -1.385787         2.497870
 H        -4.028403         0.264004         2.962250
 H        -4.612552        -0.079665         1.243749
 H        -0.990602        -1.739018         2.273292
 H        -2.110925        -2.368163         1.225000
 H         0.230325        -1.970674         0.082922
 H        -1.043986        -1.248634        -0.911881
 H        -0.381412         2.321451         0.247397
 H        -1.274650         1.401263        -0.992830
 H        -2.999403         1.562869         0.741054
