19
Iteration:  1038
 C        -3.782694        -0.138212         0.934080
 C        -2.344207        -0.131232         1.482705
 C        -1.438767        -1.423023         1.351868
 C         0.113390        -1.080545         1.124698
 C         0.038484         0.080604         0.182063
 O        -0.196604        -0.030307        -1.038464
 C        -0.317052         1.430644         0.837789
 C        -1.734422         1.188926         1.287587
 O        -2.017513         0.669059         2.653272
 H        -4.386855        -1.018273         1.167173
 H        -4.390379         0.725936         1.472600
 H        -3.678772         0.091181        -0.131075
 H        -1.637480        -1.865792         2.412755
 H        -1.744753        -2.075795         0.441827
 H         0.761386        -0.823807         1.967272
 H         0.513761        -1.989200         0.501056
 H         0.329656         1.772230         1.718572
 H        -0.263263         2.098015         0.080452
 H        -2.393000         2.007831         0.898144
