19
Iteration:  1957
 C        -3.815227        -0.089097         2.124893
 C        -2.477439        -0.132208         1.556991
 C        -1.796055        -1.470243         1.223304
 C        -0.571985        -1.354036         0.245287
 C         0.025915         0.142878         0.067537
 O         1.209431         0.307552         0.239458
 C        -0.855883         1.266402        -0.053805
 C        -2.016673         1.165769         0.899579
 O        -1.601273         0.684901         2.287384
 H        -3.951392        -0.892577         2.841687
 H        -3.840961         0.958637         2.609136
 H        -4.533133        -0.123038         1.344379
 H        -1.414252        -1.733321         2.231068
 H        -2.507211        -2.160911         0.706791
 H         0.325526        -1.963291         0.537842
 H        -0.981483        -1.556100        -0.799185
 H        -0.390744         2.226882         0.077848
 H        -1.478449         1.235934        -1.048332
 H        -2.709682         2.054711         1.099135
