19
Iteration:  3237charge 0 multiplicity 1
 C        -3.918698        -0.421410         1.330790
 C        -2.424530        -0.111635         1.520528
 C        -1.377410        -1.334481         1.559067
 C        -0.013892        -1.226898         0.749656
 C         0.124889         0.092566         0.141536
 O         0.376737         0.120957        -1.070347
 C        -0.381268         1.308313         0.914064
 C        -1.926466         1.248059         1.082609
 O        -2.200518         0.930111         2.501964
 H        -4.015900        -1.515428         1.438214
 H        -4.453718         0.202932         2.214592
 H        -4.347104         0.003235         0.409231
 H        -1.191612        -1.510772         2.617021
 H        -1.909916        -2.332839         1.180916
 H         0.678868        -1.573104         1.504925
 H         0.098318        -1.908660        -0.101300
 H         0.127529         1.360598         1.931162
 H        -0.008509         2.140677         0.320619
 H        -2.676271         1.951354         0.759906
