19
Iteration:  3796
 C        -3.961196        -0.364776         1.865611
 C        -2.463750        -0.218687         1.655115
 C        -1.697980        -1.375874         0.961314
 C        -0.193021        -1.131559         0.788607
 C         0.135595         0.186921         0.070686
 O         1.065438         0.324050        -0.679354
 C        -0.936997         1.384064         0.244450
 C        -2.004204         1.100294         1.251613
 O        -1.767650         0.668304         2.615943
 H        -4.282505        -1.406367         2.121524
 H        -4.261926         0.379711         2.585238
 H        -4.399750        -0.120499         0.819277
 H        -1.923654        -2.375079         1.320741
 H        -2.070491        -1.594121        -0.137530
 H         0.278327        -1.119807         1.791823
 H         0.265051        -1.937860         0.248778
 H        -0.407850         2.320550         0.399013
 H        -1.450631         1.518901        -0.741672
 H        -2.898901         1.776304         1.344082
