19
Iteration:  3182
 C        -3.927907        -0.474618         1.276994
 C        -2.447179        -0.110042         1.477382
 C        -1.558300        -1.297035         1.352479
 C        -0.081083        -1.019535         1.058203
 C         0.089997         0.138603         0.095003
 O         0.350574        -0.006009        -1.118200
 C        -0.421653         1.442500         0.771577
 C        -1.852039         1.173624         1.234337
 O        -1.948177         0.750791         2.594464
 H        -4.022723        -1.417432         1.736828
 H        -4.481511         0.437379         1.647267
 H        -3.916311        -0.527145         0.189798
 H        -1.742338        -1.820410         2.288556
 H        -1.916953        -1.937484         0.442607
 H         0.242222        -0.726894         2.033715
 H         0.444271        -1.958815         0.815524
 H         0.228234         1.667164         1.643680
 H        -0.327686         2.330712         0.106338
 H        -2.449847         2.070001         1.046882
