19
Iteration:  1948charge 0 multiplicity 1
 C        -3.868414        -0.096883         2.071944
 C        -2.461103        -0.092470         1.494352
 C        -1.753915        -1.401506         1.266853
 C        -0.548221        -1.336911         0.205686
 C         0.030964         0.054385         0.026436
 O         1.217134         0.316575         0.194668
 C        -0.901792         1.291815        -0.056459
 C        -1.943890         1.144608         0.988081
 O        -1.688609         0.696633         2.377534
 H        -3.807426        -0.801137         2.858412
 H        -4.007271         0.895607         2.621178
 H        -4.675122        -0.337531         1.473265
 H        -1.333113        -1.864177         2.219489
 H        -2.471070        -2.249651         0.940589
 H         0.277938        -2.055145         0.392485
 H        -0.895433        -1.784623        -0.769134
 H        -0.201441         2.040336         0.072536
 H        -1.340559         1.387524        -1.097265
 H        -2.490821         2.086188         0.965898
