19
Iteration:  2454
 C        -3.979018        -0.450067         1.420053
 C        -2.476398        -0.093870         1.506718
 C        -1.524422        -1.295226         1.636603
 C        -0.302248        -1.242831         0.680276
 C         0.009282         0.112067        -0.058424
 O         0.772792         0.122108        -0.991879
 C        -0.386908         1.299998         0.727347
 C        -1.854999         1.205189         1.200486
 O        -2.111837         0.942665         2.569823
 H        -4.231920        -1.212711         2.144268
 H        -4.758550         0.366572         1.693220
 H        -4.283902        -0.713553         0.435905
 H        -1.229297        -1.374671         2.688025
 H        -2.024282        -2.231171         1.457705
 H         0.655419        -1.476933         1.204061
 H        -0.303966        -2.001581        -0.108337
 H         0.363573         1.208265         1.642646
 H        -0.018127         2.268975         0.188338
 H        -2.443750         1.996716         0.813509
