19
Iteration:   389
 C        -3.902559        -0.186415         1.074198
 C        -2.452746        -0.064768         1.625192
 C        -1.456935        -1.332864         1.623110
 C         0.023841        -1.262682         0.916544
 C         0.077831        -0.035739         0.081414
 O         0.138101         0.043159        -1.130402
 C        -0.215327         1.192752         0.977718
 C        -1.710493         1.178390         1.193485
 O        -2.197084         0.988042         2.484701
 H        -4.643151        -0.356516         1.832371
 H        -4.362824         0.908269         0.705990
 H        -4.051307        -0.768729         0.140384
 H        -1.238590        -1.549395         2.620080
 H        -1.931653        -2.153725         1.204822
 H         0.819619        -1.279780         1.626973
 H         0.128047        -2.116894         0.103722
 H         0.185571         1.196507         2.015113
 H         0.069317         2.168354         0.461821
 H        -2.288144         1.869832         0.486628
