19
Iteration:  3580charge 0 multiplicity 1
 C        -3.683175        -0.512517         2.280585
 C        -2.405332        -0.139190         1.545554
 C        -1.710034        -1.458765         1.105562
 C        -0.609840        -1.226253         0.033182
 C         0.010339         0.217869         0.085315
 O         1.145996         0.325099         0.426215
 C        -1.010469         1.332829        -0.142036
 C        -2.052384         1.204125         0.947894
 O        -1.599241         0.825927         2.303437
 H        -3.294604        -0.873516         3.260218
 H        -4.136691         0.439317         2.293053
 H        -4.265681        -1.358017         1.737479
 H        -1.146005        -1.709636         2.064770
 H        -2.493433        -2.149358         0.829287
 H         0.235626        -1.937518        -0.026914
 H        -1.138310        -1.093323        -1.035645
 H        -0.553973         2.251589         0.081342
 H        -1.356582         1.391899        -1.199238
 H        -2.910959         1.895457         0.852074
