19
Iteration:   684charge 0 multiplicity 1
 C        -3.864329        -0.143065         2.196009
 C        -2.416924        -0.134335         1.590975
 C        -1.696018        -1.439503         1.225750
 C        -0.717945        -1.212706         0.048230
 C         0.032250         0.118751         0.107081
 O         1.205093         0.221266         0.352254
 C        -0.861805         1.272207        -0.121780
 C        -1.941817         1.061333         0.949728
 O        -1.599035         0.795415         2.267454
 H        -3.917202        -0.823552         3.063298
 H        -4.127227         0.940526         2.412345
 H        -4.630747        -0.507740         1.538739
 H        -1.229315        -1.907714         2.133260
 H        -2.480879        -2.183592         0.824730
 H        -0.048021        -2.073735         0.004054
 H        -1.262088        -1.231180        -0.872142
 H        -0.348169         2.269630         0.142664
 H        -1.233529         1.278424        -1.175403
 H        -2.656957         1.982085         0.862576
