19
Iteration:  3760charge 0 multiplicity 1
 C        -3.980844        -0.408369         2.001137
 C        -2.506783        -0.194815         1.472521
 C        -1.716848        -1.388140         1.147370
 C        -0.329669        -1.211272         0.575892
 C         0.034214         0.216469         0.036262
 O         1.174332         0.434215        -0.343876
 C        -0.956639         1.352587         0.122110
 C        -2.024325         1.188722         1.239286
 O        -1.605421         0.603296         2.397022
 H        -4.103427        -1.478847         2.226050
 H        -4.314051         0.102018         2.872203
 H        -4.686820        -0.217270         1.219197
 H        -1.770504        -1.863998         2.118468
 H        -2.278712        -1.942481         0.441919
 H         0.446269        -1.485294         1.340392
 H        -0.175795        -1.914345        -0.301909
 H        -0.212975         2.170796         0.391586
 H        -1.350400         1.577660        -0.805559
 H        -2.727586         2.076990         1.292208
