19
Iteration:  4369
 C        -3.831202        -0.400203         2.228699
 C        -2.419138        -0.150911         1.675656
 C        -1.858352        -1.402445         1.006164
 C        -0.537949        -1.240254         0.195822
 C         0.031270         0.184081         0.136265
 O         1.241368         0.423496         0.159276
 C        -0.994855         1.248825        -0.170678
 C        -1.948354         1.087824         1.065186
 O        -1.527136         0.795828         2.392794
 H        -3.780536        -0.138127         3.290267
 H        -4.427187         0.308417         1.759558
 H        -4.251018        -1.366234         2.004185
 H        -1.856376        -2.259750         1.692822
 H        -2.766819        -1.604542         0.352974
 H         0.161297        -2.063315         0.319188
 H        -0.780773        -1.400399        -0.886576
 H        -0.487331         2.276715        -0.172854
 H        -1.685676         1.198686        -1.024320
 H        -2.680625         1.907827         0.990890
