19
Iteration:   395
 C        -3.839149        -0.163252         1.059580
 C        -2.421830        -0.067661         1.611002
 C        -1.469365        -1.311367         1.651016
 C        -0.044101        -1.259685         0.852735
 C         0.091779         0.011620         0.096705
 O         0.133810         0.014565        -1.125972
 C        -0.163517         1.202303         0.969330
 C        -1.758390         1.156665         1.166388
 O        -2.233631         0.990679         2.526632
 H        -4.597704        -0.473163         1.848986
 H        -4.156112         0.748279         0.702954
 H        -3.939509        -0.831312         0.215412
 H        -1.326033        -1.561299         2.767450
 H        -1.914204        -2.254864         1.158132
 H         0.859162        -1.301949         1.546059
 H         0.080309        -2.043917         0.193377
 H         0.157629         1.188377         2.041369
 H         0.097462         2.088128         0.442957
 H        -2.305022         1.818989         0.557012
