19
Iteration:    16charge 0 multiplicity 1
 C        -3.872573        -0.092415         2.160189
 C        -2.524368        -0.074058         1.543333
 C        -1.795573        -1.459018         1.247564
 C        -0.785460        -1.263493         0.017715
 C         0.119938        -0.031528         0.125394
 O         1.373332         0.022288         0.327175
 C        -0.786322         1.171327         0.020305
 C        -1.963772         1.182971         0.902728
 O        -1.646174         1.054762         2.262224
 H        -3.916991        -0.938296         2.892868
 H        -4.189225         0.737938         2.745764
 H        -4.603104        -0.168097         1.379172
 H        -1.198400        -1.750681         2.207334
 H        -2.534996        -2.324908         1.009131
 H        -0.254889        -2.283198        -0.281002
 H        -1.453889        -0.950334        -0.776548
 H        -0.220006         2.143545         0.280661
 H        -1.169202         1.363783        -1.002892
 H        -2.629052         2.014439         0.707686
