19
Iteration:  3429charge 0 multiplicity 1
 C        -3.986930        -0.515043         1.627007
 C        -2.421087        -0.158648         1.685222
 C        -1.399388        -1.275909         1.549104
 C        -0.492649        -1.203102         0.295432
 C         0.161405         0.127895         0.031400
 O         1.090006         0.257687        -0.755485
 C        -0.656297         1.285828         0.585594
 C        -2.036681         1.192064         1.165046
 O        -2.089681         0.872672         2.538222
 H        -4.269668        -0.682669         2.701169
 H        -4.549371         0.307932         1.389844
 H        -4.076268        -1.427658         1.038902
 H        -0.772925        -1.289929         2.468901
 H        -1.733654        -2.276107         1.674706
 H         0.244701        -2.003175         0.378640
 H        -1.158310        -1.588564        -0.407620
 H        -0.026199         1.908621         1.334850
 H        -0.713168         1.941767        -0.330345
 H        -2.830508         1.877791         0.735957
