19
Iteration:  2373charge 0 multiplicity 1
 C        -4.011181        -0.320873         1.303420
 C        -2.484082        -0.073839         1.656476
 C        -1.578719        -1.320830         1.538657
 C        -0.120858        -1.125796         0.914688
 C         0.120926         0.038283        -0.021899
 O         0.600330         0.132027        -1.154579
 C        -0.437009         1.245223         0.684179
 C        -1.812486         1.136191         1.183751
 O        -2.079006         0.862807         2.662396
 H        -4.365559        -1.355628         1.496264
 H        -4.466918         0.451495         1.868038
 H        -4.146997        -0.101367         0.205841
 H        -1.456683        -1.788457         2.513119
 H        -2.185124        -1.949707         0.838003
 H         0.588235        -0.952163         1.683553
 H         0.136356        -2.079800         0.428295
 H         0.310912         1.216670         1.627949
 H        -0.147311         2.164821         0.125858
 H        -2.604870         1.820632         0.743294
