19
Iteration:  1410
 C        -3.867872        -0.345598         1.931188
 C        -2.368062        -0.054901         1.698627
 C        -1.535278        -1.397946         1.358602
 C        -0.731313        -1.214018         0.084268
 C         0.038591         0.042533         0.079958
 O         1.250488        -0.014942         0.058381
 C        -0.817594         1.343416         0.107038
 C        -1.987627         1.163847         0.962156
 O        -1.806265         1.051241         2.404672
 H        -4.114645        -1.128195         2.694873
 H        -4.357253         0.476956         2.279458
 H        -4.307045        -0.620952         0.933693
 H        -1.027123        -1.682075         2.241737
 H        -2.315682        -2.109950         1.160856
 H         0.062792        -1.992199        -0.183474
 H        -1.442050        -1.282902        -0.757524
 H        -0.200845         2.296316         0.535469
 H        -1.149859         1.557428        -0.933458
 H        -2.866165         1.742736         0.757942
