19
Iteration:  2828
 C        -3.717471        -0.185685         2.150821
 C        -2.354919        -0.145693         1.634125
 C        -1.645628        -1.410907         1.132285
 C        -0.583034        -1.236573         0.026970
 C        -0.007326         0.126416         0.140873
 O         1.102328         0.320216         0.509743
 C        -1.076003         1.176359        -0.260862
 C        -1.990403         1.143482         1.002110
 O        -1.563174         0.792341         2.315632
 H        -3.938624        -0.853070         3.047183
 H        -4.128705         0.799134         2.499897
 H        -4.453809        -0.465333         1.388830
 H        -1.075457        -1.981129         1.844732
 H        -2.495579        -1.957983         0.694140
 H         0.131992        -2.141717        -0.027267
 H        -0.968764        -1.325363        -1.013581
 H        -0.690585         2.155523        -0.499907
 H        -1.574033         0.735573        -1.118239
 H        -2.772519         1.914383         0.875515
