19
Iteration:  4822charge 0 multiplicity 1
 C        -3.860524        -0.496191         1.395645
 C        -2.457327        -0.170692         1.698158
 C        -1.386154        -1.280432         1.847265
 C        -0.401168        -1.315962         0.598401
 C         0.142487         0.133457        -0.032343
 O         0.611765         0.253948        -1.143203
 C        -0.307480         1.322631         0.833747
 C        -1.820649         1.074410         1.075596
 O        -2.242775         1.035679         2.523932
 H        -4.078351        -1.622951         1.478645
 H        -4.571887        -0.166773         2.092094
 H        -4.140437        -0.261296         0.350867
 H        -0.859049        -0.941737         2.811769
 H        -1.817178        -2.281485         2.033239
 H         0.354940        -2.070010         0.795863
 H        -0.947721        -1.631681        -0.319258
 H         0.329574         1.280649         1.689214
 H        -0.514487         2.349150         0.276782
 H        -2.446929         1.800812         0.465168
