19
Iteration:  3893charge 0 multiplicity 1
 C        -3.930225        -0.444262         1.566747
 C        -2.423619        -0.214861         1.548618
 C        -1.568745        -1.352672         1.135046
 C        -0.004045        -1.054313         1.023346
 C         0.115453         0.113078         0.046352
 O         0.452014         0.254099        -1.075247
 C        -0.548212         1.373757         0.714450
 C        -1.948464         1.168264         1.238100
 O        -1.923920         0.710946         2.575913
 H        -4.287933        -0.791411         2.530603
 H        -4.455216         0.417495         1.272787
 H        -4.039648        -1.225869         0.749094
 H        -1.742759        -2.310695         1.611537
 H        -1.852319        -1.572891         0.136061
 H         0.429381        -0.630749         1.990799
 H         0.437924        -2.024896         0.767036
 H         0.020377         1.771019         1.631842
 H        -0.453566         2.165176        -0.026900
 H        -2.686976         1.975476         0.821348
