19
Iteration:   533charge 0 multiplicity 1
 C        -3.913213        -0.563084         1.409439
 C        -2.450261        -0.013476         1.613904
 C        -1.457098        -1.149826         1.701010
 C        -0.599854        -1.260419         0.396186
 C         0.036935        -0.003555         0.030902
 O         0.886452         0.005479        -0.860866
 C        -0.304463         1.253685         0.748190
 C        -1.858133         1.304803         1.142019
 O        -2.151334         1.031084         2.582356
 H        -4.412355        -0.881185         2.363754
 H        -4.653372         0.096842         0.924651
 H        -3.778305        -1.344077         0.534351
 H        -0.806133        -0.879931         2.514379
 H        -2.002058        -1.995750         1.932931
 H         0.147227        -2.092039         0.328011
 H        -1.323790        -1.401229        -0.481970
 H         0.265614         1.238518         1.710038
 H        -0.001831         2.117365         0.201538
 H        -2.513122         2.027498         0.704018
