19
Iteration:   400
 C        -3.792015        -0.174590         1.069552
 C        -2.383863        -0.095875         1.544834
 C        -1.472208        -1.315103         1.685010
 C        -0.108100        -1.248163         0.833411
 C         0.088560         0.043330         0.116482
 O         0.136906         0.000444        -1.124798
 C        -0.160637         1.219335         0.966465
 C        -1.763447         1.147877         1.144056
 O        -2.258895         1.001345         2.571759
 H        -4.449444        -0.608893         1.799569
 H        -4.050102         0.942093         0.638081
 H        -3.779000        -0.990219         0.293444
 H        -1.377574        -1.568514         2.695391
 H        -1.982769        -2.123909         1.263131
 H         0.734219        -1.331782         1.494055
 H        -0.022044        -2.203202         0.146859
 H         0.305594         1.131079         1.968975
 H         0.165622         2.169596         0.426578
 H        -2.389914         1.918294         0.572102
