19
Iteration:  3615
 C        -3.718489        -0.302119         2.375236
 C        -2.375930        -0.188352         1.585686
 C        -1.696336        -1.446757         0.994225
 C        -0.524626        -1.203234        -0.157818
 C         0.017664         0.148515         0.093239
 O         1.097085         0.449921         0.621969
 C        -1.090240         1.236747        -0.165436
 C        -2.115874         1.065251         0.948609
 O        -1.484777         0.750937         2.257174
 H        -3.626910        -0.150116         3.412708
 H        -4.429117         0.509130         2.103748
 H        -4.361390        -1.135570         2.222623
 H        -1.022475        -1.968393         1.706694
 H        -2.466729        -2.121455         0.850709
 H         0.272516        -1.954659        -0.266346
 H        -1.014901        -1.100175        -1.202840
 H        -0.520322         2.154775        -0.088385
 H        -1.605142         1.206994        -1.093991
 H        -2.815068         1.912830         1.011060
