19
Iteration:  3662
 C        -3.696934        -0.468874         2.333276
 C        -2.477066        -0.149683         1.573927
 C        -1.773973        -1.469065         1.048986
 C        -0.614841        -1.183338         0.099865
 C         0.007708         0.218793         0.057753
 O         1.097888         0.443161         0.479271
 C        -1.006602         1.395065        -0.276229
 C        -1.982027         1.152313         0.974692
 O        -1.490388         0.677361         2.277449
 H        -3.469122        -0.428123         3.401296
 H        -4.582712         0.192270         2.271053
 H        -4.058483        -1.407683         2.022819
 H        -1.412754        -2.166271         1.781154
 H        -2.435908        -2.124325         0.402155
 H         0.237523        -1.847186         0.362833
 H        -0.898085        -1.463727        -0.883560
 H        -0.412945         2.357339         0.009440
 H        -1.247504         1.380623        -1.320536
 H        -2.757717         1.929284         0.901876
