19
Iteration:  3044
 C        -4.001651        -0.308604         1.884629
 C        -2.543253        -0.180049         1.599485
 C        -1.730905        -1.446692         1.139781
 C        -0.258901        -1.272478         0.552969
 C         0.153451         0.082581         0.039235
 O         1.214486         0.235939        -0.587431
 C        -0.774582         1.364172         0.456900
 C        -2.070168         1.113601         1.068252
 O        -1.854795         0.961624         2.491147
 H        -4.276566        -1.242913         2.450422
 H        -4.361627         0.675989         2.399652
 H        -4.768471        -0.352123         1.118539
 H        -1.627018        -2.122918         2.055080
 H        -2.386903        -1.960037         0.477482
 H         0.481024        -1.687032         1.318001
 H        -0.194644        -2.082674        -0.164689
 H        -0.171666         1.764732         1.244851
 H        -0.718837         2.088661        -0.302525
 H        -2.865527         1.817792         0.821932
