19
Iteration:   607
 C        -3.937282        -0.374002         1.774283
 C        -2.487758        -0.064274         1.609697
 C        -1.652701        -1.346459         1.548067
 C        -0.664781        -1.316396         0.324440
 C         0.132481         0.055500         0.037012
 O         1.244494         0.115006        -0.433032
 C        -0.635766         1.366639         0.311736
 C        -1.965600         1.151824         1.038367
 O        -1.879072         0.930390         2.483148
 H        -4.114964        -1.025223         2.614387
 H        -4.442272         0.675629         1.925798
 H        -4.375208        -0.626348         0.878732
 H        -1.167255        -1.309492         2.540148
 H        -2.242155        -2.312955         1.403167
 H         0.020557        -2.147758         0.359169
 H        -1.314460        -1.489872        -0.574097
 H         0.037606         2.085122         0.928221
 H        -0.886733         1.969709        -0.623038
 H        -2.670292         2.062555         0.806002
