19
Iteration:  1629
 C        -3.639527        -0.220254         0.854691
 C        -2.301925        -0.054335         1.440694
 C        -1.398299        -1.167334         1.820410
 C        -0.163345        -1.411073         0.943730
 C        -0.062985        -0.046257         0.018397
 O         0.057610        -0.045420        -1.194206
 C        -0.181000         1.262313         1.008454
 C        -1.719913         1.294916         1.343086
 O        -2.316754         0.966136         2.574083
 H        -4.359276        -1.023130         1.392003
 H        -4.102168         0.734623         0.759730
 H        -3.523394        -0.758719        -0.190412
 H        -0.956595        -0.903133         2.801462
 H        -2.059046        -2.125487         1.986647
 H         0.815326        -1.559217         1.497663
 H        -0.427215        -2.077584         0.128901
 H         0.516714         1.137027         1.803550
 H         0.191931         2.157854         0.536463
 H        -2.250690         2.072033         0.817046
