19
Iteration:  1546
 C        -3.932579        -0.440768         1.310125
 C        -2.468753        -0.056287         1.605208
 C        -1.330007        -1.055239         1.765279
 C        -0.488921        -1.413023         0.531439
 C         0.069390        -0.081464         0.036246
 O         0.591851         0.157548        -1.015482
 C        -0.193299         1.066952         0.965189
 C        -1.720502         1.171397         1.156762
 O        -2.341370         1.157368         2.415176
 H        -4.363087        -0.951042         2.105406
 H        -4.530859         0.556451         1.088738
 H        -4.031623        -0.954412         0.416090
 H        -0.621590        -0.611297         2.495697
 H        -1.631579        -1.964940         2.288444
 H         0.418388        -1.944991         0.861143
 H        -0.860311        -2.015131        -0.318849
 H         0.403243         0.801640         1.922999
 H         0.272624         2.051370         0.535784
 H        -2.177118         1.987089         0.528627
