19
Iteration:   266charge 0 multiplicity 1
 C        -4.059372        -0.030014         1.642840
 C        -2.585903        -0.086924         1.478324
 C        -1.782290        -1.335761         1.034340
 C        -0.228435        -1.006924         1.081435
 C         0.112237         0.079231         0.119231
 O         0.934134        -0.247730        -0.790592
 C        -0.653256         1.457920         0.340285
 C        -1.776741         1.196672         1.286504
 O        -1.765855         0.567764         2.513687
 H        -4.635985        -0.932399         2.095974
 H        -4.484286         0.924167         2.148644
 H        -4.477369        -0.101802         0.632800
 H        -1.898340        -2.117716         1.731855
 H        -2.077437        -1.733875         0.134508
 H        -0.046647        -0.490393         2.106242
 H         0.316600        -1.921901         1.004469
 H        -0.072412         2.377108         0.695055
 H        -1.079654         1.768450        -0.581346
 H        -2.402146         2.074478         1.437388
