19
Iteration:  3879
 C        -3.892063        -0.491598         1.632161
 C        -2.398877        -0.139341         1.494512
 C        -1.561797        -1.339828         1.019302
 C        -0.044929        -1.090256         1.034325
 C         0.035666         0.192257         0.175408
 O         0.523961         0.178786        -1.004470
 C        -0.621151         1.425943         0.679763
 C        -2.022985         1.217843         1.168731
 O        -1.825995         0.651778         2.508962
 H        -4.079340        -0.718131         2.710667
 H        -4.468660         0.379031         1.432835
 H        -4.312503        -1.241922         1.009059
 H        -1.843251        -2.140005         1.764594
 H        -1.839042        -1.528536         0.037387
 H         0.328997        -1.019828         2.084152
 H         0.579521        -1.859010         0.485302
 H         0.029319         1.698912         1.595634
 H        -0.538668         2.159651        -0.071735
 H        -2.820852         1.960411         1.191329
