19
Iteration:  1443
 C        -3.951238        -0.311308         1.680179
 C        -2.444907        -0.053753         1.579362
 C        -1.461859        -1.160384         1.551121
 C        -0.740679        -1.290955         0.218034
 C         0.089201        -0.060941         0.010974
 O         1.284780         0.055211        -0.285780
 C        -0.783101         1.259829         0.230221
 C        -1.924116         1.193798         1.129667
 O        -1.933304         0.907987         2.568815
 H        -4.133463        -1.053848         2.514464
 H        -4.354135         0.588631         1.816870
 H        -4.303470        -0.801039         0.728947
 H        -0.785514        -0.966730         2.351719
 H        -1.956719        -2.087453         1.770994
 H        -0.062730        -2.217037         0.117719
 H        -1.555860        -1.198883        -0.515791
 H        -0.025833         2.149815         0.584125
 H        -1.032386         1.598263        -0.784033
 H        -2.660634         1.941637         0.884302
