19
Iteration:  2681
 C        -3.927162        -0.293020         1.640883
 C        -2.380647        -0.237503         1.537451
 C        -1.538062        -1.475974         1.554232
 C        -0.506979        -1.229921         0.484128
 C         0.006382         0.204909         0.123017
 O         1.054484         0.102557        -0.571565
 C        -0.670009         1.529343         0.407383
 C        -1.946223         1.130806         1.081085
 O        -1.899498         0.830357         2.477208
 H        -4.346043        -0.644940         2.574379
 H        -4.341685         0.695091         1.449774
 H        -4.495341        -0.964256         0.884532
 H        -1.162640        -1.547964         2.598291
 H        -2.145968        -2.359055         1.311650
 H         0.379641        -1.756565         0.669895
 H        -0.951454        -1.643573        -0.498568
 H        -0.123430         2.165985         1.034129
 H        -0.849945         2.044789        -0.581357
 H        -2.741604         1.820713         0.909607
