19
Iteration:  4934charge 0 multiplicity 1
 C        -3.733546        -0.506568         1.442764
 C        -2.282970        -0.135904         1.581291
 C        -1.288849        -1.193378         1.785347
 C        -0.502134        -1.291885         0.466650
 C        -0.099483         0.016331        -0.017427
 O         0.647278         0.246761        -0.974518
 C        -0.458443         1.283378         0.844207
 C        -1.853816         1.216897         1.155688
 O        -2.242994         0.897427         2.439201
 H        -4.204691        -0.158438         2.352627
 H        -4.130978         0.123678         0.623650
 H        -3.675161        -1.576558         1.219716
 H        -0.745558        -0.882374         2.769051
 H        -1.586335        -2.153581         2.129507
 H         0.358860        -1.894900         0.493142
 H        -1.216234        -1.677195        -0.300246
 H        -0.015448         1.289214         1.823903
 H        -0.051414         2.336504         0.495360
 H        -2.454451         1.907326         0.617139
