19
Iteration:   677charge 0 multiplicity 1
 C        -3.895584        -0.190296         2.191065
 C        -2.425242        -0.136773         1.654215
 C        -1.700979        -1.407241         1.246184
 C        -0.706081        -1.249886         0.059464
 C         0.061483         0.062363         0.075112
 O         1.241258         0.251509         0.282465
 C        -0.823725         1.251777        -0.059729
 C        -1.974847         1.119902         0.919898
 O        -1.652739         0.815918         2.297045
 H        -3.978763        -0.944538         3.000948
 H        -4.140731         0.788970         2.380624
 H        -4.657355        -0.352324         1.348690
 H        -1.195949        -1.903959         2.066432
 H        -2.450995        -2.015622         0.893919
 H        -0.032128        -2.161307        -0.166843
 H        -1.417379        -1.114530        -0.857096
 H        -0.291233         2.255202         0.005951
 H        -1.094169         1.204392        -1.107879
 H        -2.416228         2.049269         0.932419
