19
Iteration:  3804charge 0 multiplicity 1
 C        -3.976660        -0.399155         1.832305
 C        -2.513267        -0.212872         1.667491
 C        -1.677396        -1.348256         0.910631
 C        -0.165313        -1.094904         0.864586
 C         0.098485         0.122943         0.019016
 O         1.074902         0.320744        -0.724344
 C        -0.927816         1.346898         0.268216
 C        -2.029885         1.111327         1.297585
 O        -1.755939         0.663130         2.605928
 H        -4.338482        -1.330329         2.293258
 H        -4.292253         0.366929         2.464546
 H        -4.455101        -0.162059         0.879544
 H        -1.737579        -2.374591         1.286774
 H        -2.021070        -1.243621        -0.083984
 H         0.386385        -0.928455         1.840257
 H         0.283301        -2.024237         0.386590
 H        -0.365679         2.258346         0.654768
 H        -1.429882         1.612316        -0.596723
 H        -2.680368         2.050309         1.232018
