19
Iteration:  2000charge 0 multiplicity 1
 C        -3.759289        -0.263764         2.361134
 C        -2.407179        -0.075720         1.568308
 C        -1.990296        -1.349694         0.963278
 C        -0.604801        -1.273256         0.288939
 C         0.048162         0.101214         0.212755
 O         1.238415         0.313810         0.442724
 C        -0.991784         1.139993        -0.210775
 C        -2.036665         1.202970         0.876429
 O        -1.425291         0.802462         2.155766
 H        -3.882217        -1.296573         2.764610
 H        -3.902988         0.602192         3.134478
 H        -4.498701        -0.145148         1.543193
 H        -1.862730        -2.111753         1.723584
 H        -2.667314        -1.551395         0.133623
 H         0.151992        -1.992248         0.716537
 H        -0.688805        -1.629999        -0.782310
 H        -0.439737         2.085219        -0.386365
 H        -1.318639         0.621393        -1.202366
 H        -2.831749         2.068435         0.862378
