19
Iteration:  2691charge 0 multiplicity 1
 C        -3.933256        -0.298599         1.731802
 C        -2.466878        -0.143972         1.535841
 C        -1.589023        -1.479570         1.562381
 C        -0.453348        -1.229577         0.469585
 C         0.027924         0.175033         0.055961
 O         1.062754         0.100687        -0.492746
 C        -0.681405         1.528086         0.414842
 C        -1.943735         1.208362         1.057166
 O        -1.907139         0.749454         2.401194
 H        -3.970039        -0.561324         2.763201
 H        -4.409391         0.598106         1.541660
 H        -4.152199        -1.136545         1.009684
 H        -1.161148        -1.708125         2.570794
 H        -2.080006        -2.401846         1.182996
 H         0.409982        -1.842176         0.540647
 H        -0.792781        -1.574335        -0.557134
 H        -0.049442         2.219124         1.013839
 H        -0.924479         2.066373        -0.542088
 H        -2.741139         1.902367         0.791366
