19
Iteration:  2286charge 0 multiplicity 1
 C        -4.081934        -0.247115         1.692342
 C        -2.550034        -0.126509         1.482345
 C        -1.652591        -1.255284         0.893888
 C        -0.116374        -0.928523         1.203100
 C         0.207714         0.097389         0.172496
 O         0.618916        -0.123390        -0.952963
 C        -0.491668         1.446633         0.530294
 C        -1.867426         1.185453         1.204224
 O        -1.843108         0.540321         2.522001
 H        -4.418542        -0.546811         2.688777
 H        -4.687320         0.636866         1.538551
 H        -4.567054        -0.851682         0.912405
 H        -1.777684        -2.222043         1.313203
 H        -1.672927        -1.326317        -0.194090
 H         0.126816        -0.634621         2.182773
 H         0.404123        -1.868328         0.982863
 H         0.080715         2.160773         1.291670
 H        -0.642779         2.067903        -0.375831
 H        -2.495200         2.109601         1.178343
