19
Iteration:  4847charge 0 multiplicity 1
 C        -3.820915        -0.476183         1.330400
 C        -2.342114        -0.176407         1.591991
 C        -1.273165        -1.217203         1.789964
 C        -0.339481        -1.283832         0.525882
 C         0.000523         0.036585         0.080860
 O         0.508724         0.160870        -1.008810
 C        -0.413789         1.301305         0.846795
 C        -1.913965         1.289707         1.145230
 O        -2.159414         0.939288         2.497317
 H        -4.195124        -1.452819         1.643836
 H        -4.502902         0.197067         1.867609
 H        -4.100763        -0.462487         0.264740
 H        -0.738775        -0.939905         2.810565
 H        -1.849310        -2.137217         1.863301
 H         0.608611        -1.735541         0.755462
 H        -0.753287        -1.867763        -0.333125
 H         0.228387         1.417120         1.745549
 H        -0.290942         2.141525         0.034666
 H        -2.640938         1.838558         0.566278
