19
Iteration:  2131
 C        -3.844066        -0.246327         2.059087
 C        -2.454415        -0.119397         1.631150
 C        -1.899559        -1.370543         0.960399
 C        -0.476907        -1.296704         0.435090
 C         0.057517         0.105347         0.171707
 O         1.238449         0.240108        -0.080477
 C        -0.885880         1.210403         0.054330
 C        -1.986297         1.158498         1.066004
 O        -1.618867         0.869774         2.424143
 H        -4.034182        -0.938642         2.941217
 H        -4.317824         0.833026         2.340682
 H        -4.322964        -0.635627         1.130188
 H        -2.049120        -2.337131         1.446838
 H        -2.555401        -1.628714         0.107234
 H         0.192731        -1.675320         1.222677
 H        -0.275843        -1.788204        -0.524395
 H        -0.379242         2.150621         0.041836
 H        -1.386016         1.173501        -0.938790
 H        -2.746653         2.080240         0.999103
