19
Iteration:   773charge 0 multiplicity 1
 C        -3.658630        -0.219803         2.457064
 C        -2.381120        -0.058023         1.565319
 C        -1.949802        -1.321519         0.761589
 C        -0.520913        -1.318193         0.139708
 C        -0.009212         0.058180         0.241093
 O         1.123571         0.267128         0.588932
 C        -1.018911         1.091797        -0.202829
 C        -2.074996         1.232013         0.898841
 O        -1.441538         0.840264         2.174623
 H        -3.315825        -0.820151         3.289401
 H        -3.983660         0.707382         2.651666
 H        -4.491592        -0.752188         1.942700
 H        -1.959574        -2.224932         1.460548
 H        -2.692072        -1.509750        -0.064721
 H         0.265409        -2.052867         0.498328
 H        -0.627107        -1.472839        -0.886459
 H        -0.528758         2.119033        -0.360938
 H        -1.375231         0.864737        -1.180018
 H        -2.680079         2.138728         0.911425
