19
Iteration:  1859
 C        -3.920068        -0.352175         1.826477
 C        -2.415270        -0.101982         1.577785
 C        -1.414582        -1.181928         1.452661
 C        -0.738313        -1.334655         0.135794
 C         0.054097        -0.036299        -0.007313
 O         1.224872         0.015627        -0.265422
 C        -0.601332         1.326428         0.468245
 C        -2.052130         1.194523         0.996318
 O        -2.007571         0.988608         2.434224
 H        -4.075544        -0.955222         2.712268
 H        -4.279569         0.690503         2.058515
 H        -4.444058        -0.742636         1.001484
 H        -0.646514        -0.718253         2.177003
 H        -1.742098        -2.280673         1.777765
 H        -0.102347        -2.242133        -0.031337
 H        -1.492365        -1.389841        -0.713826
 H        -0.123275         1.689247         1.341152
 H        -0.508691         2.044385        -0.396616
 H        -2.864880         1.949837         0.755496
