19
Iteration:  4359
 C        -3.767423        -0.380548         2.258069
 C        -2.358495        -0.188344         1.615042
 C        -1.868833        -1.398354         0.926343
 C        -0.531818        -1.286087         0.229897
 C         0.043017         0.164951         0.025102
 O         1.215074         0.361324         0.225925
 C        -1.047971         1.314231        -0.146238
 C        -1.978720         1.234701         1.069415
 O        -1.571684         0.783718         2.400442
 H        -3.605662        -0.237920         3.304947
 H        -4.483191         0.308328         1.874262
 H        -4.106930        -1.411065         2.186178
 H        -1.806416        -2.165231         1.654503
 H        -2.675701        -1.753340         0.188372
 H         0.198479        -1.916471         0.789528
 H        -0.606799        -1.563700        -0.828662
 H        -0.454706         2.318429        -0.261345
 H        -1.641133         1.044288        -1.045790
 H        -2.824464         1.822671         1.185232
