19
Iteration:  3189charge 0 multiplicity 1
 C        -3.902823        -0.480511         1.293850
 C        -2.466293        -0.128163         1.501355
 C        -1.558564        -1.330690         1.376321
 C        -0.119422        -1.022735         1.051729
 C         0.088592         0.081892         0.060440
 O         0.351205         0.050724        -1.127763
 C        -0.356756         1.418096         0.804500
 C        -1.820433         1.218399         1.204621
 O        -1.976824         0.811745         2.596461
 H        -4.175994        -1.604054         1.608335
 H        -4.647165         0.236529         1.608558
 H        -4.055897        -0.407114         0.157355
 H        -1.471632        -2.014034         2.266199
 H        -1.955512        -1.975519         0.588561
 H         0.336218        -0.703156         2.031108
 H         0.450321        -1.964552         0.782123
 H         0.222754         1.596920         1.672379
 H        -0.310186         2.341670         0.207548
 H        -2.635153         1.900644         0.829288
