19
Iteration:    19charge 0 multiplicity 1
 C        -3.869438        -0.109664         2.182206
 C        -2.508930        -0.072704         1.540269
 C        -1.791180        -1.459246         1.238381
 C        -0.797092        -1.268346        -0.004239
 C         0.147873        -0.044683         0.137518
 O         1.363186         0.027248         0.352246
 C        -0.772997         1.174344         0.006087
 C        -1.979983         1.175160         0.890881
 O        -1.642427         1.062096         2.262076
 H        -3.956352        -0.929179         2.893458
 H        -4.160102         0.803002         2.864192
 H        -4.699984        -0.110145         1.406591
 H        -1.234483        -1.750559         2.104379
 H        -2.507268        -2.230341         1.019309
 H        -0.282706        -2.149069        -0.277471
 H        -1.546887        -0.946756        -0.786439
 H        -0.258943         2.085379         0.229326
 H        -1.118496         1.339745        -1.045594
 H        -2.736509         2.000785         0.670123
