19
Iteration:  3972
 C        -3.863261        -0.449574         1.165156
 C        -2.379743        -0.198348         1.647666
 C        -1.461861        -1.470474         1.484778
 C        -0.063260        -1.191013         0.932107
 C         0.004647         0.146352         0.026737
 O         0.263700         0.285605        -1.137656
 C        -0.464661         1.427770         0.793877
 C        -1.821724         1.132985         1.269927
 O        -1.986236         0.828957         2.663536
 H        -4.031645        -1.480706         1.339606
 H        -4.511533         0.268370         1.809754
 H        -3.852173        -0.072996         0.129928
 H        -1.372035        -2.065228         2.326748
 H        -1.857692        -2.006573         0.587985
 H         0.664231        -1.055346         1.739527
 H         0.236477        -2.082125         0.329884
 H         0.240140         1.919417         1.432428
 H        -0.699618         2.276931        -0.010665
 H        -2.542850         1.977028         0.831695
