19
Iteration:  4951
 C        -3.847604        -0.616499         1.459828
 C        -2.375987        -0.118442         1.654544
 C        -1.236167        -1.199920         1.737580
 C        -0.527789        -1.325909         0.403836
 C         0.027238         0.087857        -0.008850
 O         0.729019         0.247664        -1.018295
 C        -0.386328         1.222785         0.859238
 C        -1.924094         1.207597         1.112833
 O        -2.256156         1.084080         2.538935
 H        -4.383423        -0.530082         2.474348
 H        -4.373628        -0.118581         0.647982
 H        -3.958582        -1.724355         1.299212
 H        -0.532809        -0.948900         2.504727
 H        -1.750776        -2.133904         2.121776
 H         0.295838        -2.105903         0.358928
 H        -1.171916        -1.681438        -0.419824
 H         0.182359         1.124529         1.888453
 H         0.082194         2.116144         0.445626
 H        -2.585689         1.904822         0.485209
