19
Iteration:  1204
 C        -3.931500        -0.329012         2.005227
 C        -2.571768        -0.109132         1.495139
 C        -1.904241        -1.369213         0.834214
 C        -0.391461        -1.134695         0.733605
 C         0.131312         0.160768         0.046021
 O         1.243837         0.070466        -0.419678
 C        -0.813973         1.408626         0.186624
 C        -1.940583         1.257276         1.241714
 O        -1.698527         0.642569         2.503086
 H        -4.072674        -1.174435         2.779714
 H        -4.286319         0.483389         2.577055
 H        -4.728254        -0.397419         1.194816
 H        -2.082984        -2.186594         1.600581
 H        -2.346775        -1.596014        -0.157019
 H        -0.091413        -0.909282         1.826353
 H         0.126334        -1.947558         0.281257
 H        -0.165338         2.286596         0.181014
 H        -1.325855         1.519951        -0.719674
 H        -2.525343         2.171536         1.370132
