19
Iteration:  1933
 C        -3.976081        -0.199707         2.033886
 C        -2.520576        -0.091288         1.513859
 C        -1.672780        -1.375684         1.223153
 C        -0.581458        -1.363098         0.162304
 C         0.075870         0.042216         0.038035
 O         1.263778         0.241744         0.083550
 C        -0.841717         1.203537        -0.034989
 C        -1.919009         1.257160         1.125784
 O        -1.688799         0.824904         2.455869
 H        -3.992594        -0.774776         3.010427
 H        -4.376492         0.805822         2.166959
 H        -4.614130        -0.747402         1.249812
 H        -1.187166        -1.466102         2.167700
 H        -2.343360        -2.167829         0.950335
 H         0.227661        -2.045649         0.504260
 H        -0.990085        -1.560558        -0.854063
 H        -0.227583         2.160877         0.103420
 H        -1.494785         1.354774        -0.948514
 H        -2.809724         1.981252         1.071290
