19
Iteration:  1395
 C        -3.773114        -0.355952         2.040701
 C        -2.397568        -0.114777         1.581062
 C        -1.682281        -1.316005         1.302332
 C        -0.792608        -1.241386         0.054139
 C         0.075914         0.023995         0.100722
 O         1.280717         0.105032         0.203604
 C        -0.805335         1.270574         0.087729
 C        -2.110018         1.150779         0.935121
 O        -1.692710         1.013674         2.319397
 H        -3.696780        -1.121960         2.784117
 H        -4.160340         0.686960         2.534069
 H        -4.361419        -0.788781         1.238179
 H        -0.979772        -1.639792         2.156216
 H        -2.443902        -2.152861         1.089536
 H        -0.300457        -2.158878         0.022981
 H        -1.461259        -0.971503        -0.811627
 H        -0.179542         1.990057         0.471516
 H        -0.940098         1.619060        -0.943838
 H        -2.904517         1.917964         0.667120
