19
Iteration:  3814
 C        -4.034834        -0.419636         1.822417
 C        -2.500591        -0.229245         1.621807
 C        -1.657711        -1.248138         0.906713
 C        -0.117700        -1.029955         0.927589
 C         0.077583         0.147462        -0.050912
 O         1.036133         0.285498        -0.770645
 C        -0.876219         1.233949         0.337981
 C        -2.054030         1.195464         1.310473
 O        -1.743824         0.599192         2.599439
 H        -4.243643        -1.341327         2.381285
 H        -4.444638         0.397243         2.373684
 H        -4.591656        -0.561724         0.931444
 H        -2.003861        -2.230284         1.310240
 H        -2.048876        -1.170841        -0.051602
 H         0.177208        -0.658193         1.946105
 H         0.517321        -1.928374         0.618794
 H        -0.091146         1.967681         0.753640
 H        -1.167079         1.728468        -0.550685
 H        -2.669111         2.119706         1.288614
