19
Iteration:  2259
 C        -3.871070        -0.299162         1.669713
 C        -2.464685        -0.043231         1.368515
 C        -1.739871        -1.366195         0.967519
 C        -0.231935        -1.058306         1.010111
 C         0.056605         0.045280         0.075114
 O         0.847488        -0.070437        -0.852664
 C        -0.619874         1.420021         0.445668
 C        -1.885516         1.342315         1.335304
 O        -1.936776         0.639383         2.608836
 H        -3.974135        -0.947560         2.572311
 H        -4.513061         0.582416         1.926603
 H        -4.467899        -0.805372         0.880940
 H        -1.875123        -2.053821         1.860352
 H        -1.965596        -1.818245        -0.030001
 H         0.075444        -0.682570         2.045662
 H         0.406762        -1.933989         0.806434
 H         0.192965         1.922546         1.153535
 H        -0.743687         2.159759        -0.373041
 H        -2.495631         2.254056         1.360632
