19
Iteration:  4835
 C        -3.878613        -0.498288         1.344175
 C        -2.381885        -0.119433         1.603908
 C        -1.319028        -1.225611         1.752592
 C        -0.359355        -1.313048         0.613614
 C         0.130789         0.084772         0.090881
 O         0.513839         0.217289        -1.074594
 C        -0.408442         1.306066         0.783296
 C        -1.872229         1.088370         1.116766
 O        -2.182873         0.998197         2.548612
 H        -4.031759        -1.577786         1.575174
 H        -4.394069         0.184999         1.957822
 H        -4.150194        -0.231815         0.302577
 H        -0.667947        -1.007270         2.722566
 H        -1.718428        -2.212559         1.956639
 H         0.398157        -2.050239         0.733633
 H        -0.963521        -1.646681        -0.266031
 H        -0.040048         1.521705         1.770768
 H         0.036652         2.234295         0.160002
 H        -2.581235         1.754290         0.605914
