19
Iteration:  2235
 C        -4.016123        -0.316251         1.600156
 C        -2.503504        -0.082994         1.662010
 C        -1.825374        -1.305983         1.156042
 C        -0.271950        -1.196146         0.865873
 C         0.106318         0.074584         0.123372
 O         0.937710         0.118850        -0.797109
 C        -0.606608         1.348285         0.443389
 C        -1.901301         1.179965         1.190275
 O        -1.760449         0.772865         2.537380
 H        -4.286319        -1.267466         2.148810
 H        -4.611099         0.377111         2.088744
 H        -4.501683        -0.447441         0.577895
 H        -1.977389        -2.152044         1.856850
 H        -2.251661        -1.492658         0.169747
 H         0.376804        -1.115516         1.789872
 H         0.101908        -2.131361         0.351757
 H         0.045423         2.038544         0.937289
 H        -0.795876         1.843703        -0.574406
 H        -2.566750         1.943579         1.093372
