19
Iteration:  3202
 C        -3.921865        -0.453369         1.268399
 C        -2.363007        -0.139826         1.620354
 C        -1.538581        -1.450551         1.429694
 C        -0.054636        -1.088599         1.022984
 C        -0.002752         0.129443         0.062995
 O         0.368809         0.135652        -1.130922
 C        -0.289941         1.343398         0.790079
 C        -1.817694         1.215100         1.194005
 O        -2.135004         0.911985         2.540641
 H        -4.084080        -1.600678         1.558963
 H        -4.545217         0.071261         2.027736
 H        -4.210063        -0.355211         0.175306
 H        -1.670258        -2.029053         2.364686
 H        -2.070091        -2.014902         0.573973
 H         0.585416        -0.769623         1.850414
 H         0.394267        -1.990450         0.498866
 H         0.240714         1.371271         1.690124
 H         0.006489         2.180197         0.121346
 H        -2.412345         1.996767         0.685949
