19
Iteration:  1360
 C        -3.817660        -0.275200         2.393020
 C        -2.528129        -0.129632         1.497340
 C        -1.720744        -1.385199         1.074286
 C        -0.665434        -1.167774         0.005173
 C         0.064476         0.065320         0.099490
 O         1.205615         0.110976         0.504148
 C        -0.832419         1.353190        -0.156994
 C        -2.002734         1.192990         0.898769
 O        -1.620707         0.817064         2.198002
 H        -3.455387        -0.636282         3.374696
 H        -4.184877         0.823344         2.645323
 H        -4.685661        -0.860059         2.014543
 H        -1.233415        -1.723205         2.060146
 H        -2.467554        -2.177112         0.815181
 H         0.060186        -1.996731         0.060632
 H        -0.999671        -1.267833        -1.022834
 H        -0.306515         2.198125         0.038131
 H        -1.122945         1.244965        -1.193843
 H        -2.772900         1.983791         1.036886
