19
Iteration:  2937
 C        -3.798088        -0.166252         2.245423
 C        -2.416782        -0.194626         1.543618
 C        -1.816984        -1.444853         1.044455
 C        -0.522634        -1.311574         0.091390
 C         0.074074         0.110234         0.065988
 O         1.197017         0.427373         0.366026
 C        -0.974709         1.228543        -0.030312
 C        -1.996887         1.121879         0.971340
 O        -1.628127         0.785219         2.311826
 H        -3.704699        -0.604665         3.302711
 H        -3.985190         0.893540         2.370081
 H        -4.513063        -0.668064         1.591084
 H        -1.349923        -2.138956         1.836643
 H        -2.607752        -2.079486         0.561508
 H         0.277993        -2.078215         0.454455
 H        -0.819083        -1.600433        -0.937791
 H        -0.494244         2.228921        -0.113872
 H        -1.438857         1.043897        -1.117619
 H        -2.883041         1.773770         0.827682
