19
Iteration:  1132
 C        -3.879189        -0.203483         1.496493
 C        -2.376373        -0.178598         1.486502
 C        -1.625563        -1.382921         1.137474
 C        -0.167417        -1.088630         1.002218
 C         0.054245         0.109285         0.123257
 O         0.574259         0.044035        -1.008515
 C        -0.477908         1.419432         0.692349
 C        -1.835900         1.192973         1.242371
 O        -2.006378         0.635391         2.575051
 H        -4.315662        -0.509082         2.436199
 H        -4.290990         0.810998         1.403507
 H        -4.318030        -0.740799         0.653400
 H        -1.790584        -2.011070         1.997911
 H        -2.122268        -1.793148         0.267426
 H         0.337459        -1.005320         1.951882
 H         0.225255        -1.878842         0.371051
 H         0.091038         1.792362         1.568412
 H        -0.530175         2.340483        -0.056907
 H        -2.545386         1.975405         0.941950
