19
Iteration:  2551
 C        -3.800102        -0.561303         1.503842
 C        -2.409523        -0.048828         1.684712
 C        -1.303188        -1.214558         1.619342
 C        -0.628071        -1.289777         0.224331
 C         0.054453         0.031312        -0.046283
 O         1.002698         0.066825        -0.794191
 C        -0.462489         1.215913         0.748788
 C        -1.944334         1.260546         1.177059
 O        -2.340525         1.127857         2.621203
 H        -4.171847        -1.009636         2.435077
 H        -4.494321         0.243765         1.219962
 H        -3.816136        -1.255169         0.618833
 H        -0.542671        -1.096365         2.386367
 H        -1.762526        -2.131700         1.840403
 H         0.040361        -2.105470         0.151046
 H        -1.300645        -1.475906        -0.634840
 H         0.181908         1.131901         1.672404
 H        -0.124768         2.208715         0.261603
 H        -2.559203         1.949196         0.653278
