19
Iteration:  3992charge 0 multiplicity 1
 C        -3.764864        -0.413609         1.333211
 C        -2.342630        -0.227261         1.583734
 C        -1.466788        -1.430559         1.384651
 C        -0.060026        -1.071670         0.873575
 C         0.033984         0.195328         0.038023
 O         0.268719         0.139687        -1.149445
 C        -0.363005         1.450590         0.770866
 C        -1.877291         1.132022         1.289779
 O        -2.178483         0.771592         2.656522
 H        -4.021704        -1.405871         1.534054
 H        -4.363337         0.264132         1.911364
 H        -3.890595        -0.103468         0.287294
 H        -1.517305        -2.011984         2.297624
 H        -2.019239        -1.940866         0.648854
 H         0.566290        -0.875342         1.785942
 H         0.516590        -1.669583         0.200107
 H         0.266075         1.503124         1.674461
 H        -0.157886         2.436680         0.217572
 H        -2.626976         1.882898         0.811082
