19
Iteration:  4103charge 0 multiplicity 1
 C        -4.065450        -0.431210         1.698469
 C        -2.521470        -0.132739         1.483911
 C        -1.683273        -1.248829         1.025213
 C        -0.084135        -0.983780         1.105961
 C         0.115211         0.133101         0.038142
 O         0.705526         0.213815        -1.029425
 C        -0.593794         1.395181         0.437987
 C        -1.821781         1.182194         1.357647
 O        -1.854210         0.474503         2.621684
 H        -4.148863        -0.774196         2.692981
 H        -4.700458         0.515241         1.592955
 H        -4.472115        -1.209173         1.058942
 H        -1.908220        -2.148269         1.634352
 H        -1.759049        -1.566415        -0.010685
 H         0.377673        -0.779522         2.077443
 H         0.488734        -1.829038         0.654606
 H        -0.008252         2.197230         0.875519
 H        -1.017913         1.756799        -0.612240
 H        -2.479983         2.130722         1.559872
