19
Iteration:   574charge 0 multiplicity 1
 C        -3.996958        -0.264307         1.630704
 C        -2.501167        -0.125289         1.691055
 C        -1.435438        -1.311593         1.569307
 C        -0.544952        -1.356311         0.306453
 C         0.116745         0.038513         0.058126
 O         1.109814         0.075630        -0.687364
 C        -0.572746         1.289267         0.542405
 C        -1.913501         1.186906         1.044704
 O        -2.099826         0.965076         2.580249
 H        -4.528638        -0.305272         2.551689
 H        -4.327235         0.819759         1.283819
 H        -4.191349        -0.999477         0.962250
 H        -0.787600        -1.211825         2.452321
 H        -1.949642        -2.321150         1.741610
 H         0.204085        -2.122949         0.259481
 H        -1.214952        -1.407031        -0.618248
 H         0.114129         1.754953         1.366042
 H        -0.435475         2.020893        -0.334846
 H        -2.726752         1.914355         0.717027
