19
Iteration:  3881
 C        -3.879605        -0.486506         1.619518
 C        -2.419099        -0.145920         1.505246
 C        -1.567540        -1.340714         1.039896
 C        -0.040446        -1.086570         1.037524
 C         0.056184         0.160779         0.172634
 O         0.512599         0.198527        -1.027202
 C        -0.619747         1.413100         0.690946
 C        -2.014245         1.221374         1.176354
 O        -1.827742         0.658871         2.511749
 H        -4.151821        -0.725674         2.660324
 H        -4.396554         0.369771         1.407329
 H        -4.342058        -1.258949         0.984161
 H        -1.840577        -2.171963         1.715018
 H        -1.853503        -1.502055         0.071018
 H         0.395678        -0.942690         2.091725
 H         0.580427        -1.847716         0.512692
 H         0.052979         1.665514         1.615373
 H        -0.564613         2.166539        -0.032747
 H        -2.894200         1.982255         1.079120
