19
Iteration:    40charge 0 multiplicity 1
 C        -3.760586        -0.157546         2.313412
 C        -2.406060        -0.045355         1.647316
 C        -1.731147        -1.273806         1.150726
 C        -0.795356        -1.246995        -0.073400
 C         0.060427        -0.012921         0.191716
 O         1.208339        -0.052305         0.538469
 C        -0.730702         1.223920        -0.098342
 C        -2.026870         1.157497         0.731985
 O        -1.673620         0.966069         2.180978
 H        -3.883586        -1.107072         2.818422
 H        -3.949462         0.561027         3.238647
 H        -4.561279         0.145746         1.591036
 H        -1.168537        -1.806479         1.949567
 H        -2.586925        -1.944407         0.877602
 H        -0.269844        -2.204265        -0.008070
 H        -1.348556        -1.085934        -1.056880
 H        -0.149470         2.125713         0.089029
 H        -0.981358         1.272161        -1.211119
 H        -2.811849         1.965205         0.642506
