19
Iteration:  2474charge 0 multiplicity 1
 C        -3.808815        -0.314029         1.422487
 C        -2.389882        -0.079644         1.700254
 C        -1.430553        -1.344145         1.547564
 C        -0.324544        -1.298776         0.546110
 C         0.028646         0.024313        -0.048502
 O         0.811214         0.126395        -0.952206
 C        -0.521391         1.260187         0.763160
 C        -1.970015         1.184970         1.170263
 O        -2.239478         0.986911         2.585405
 H        -4.320893        -0.643913         2.340407
 H        -4.159613         0.650904         1.245762
 H        -3.905656        -0.936481         0.500563
 H        -0.992192        -1.550686         2.503683
 H        -2.089829        -2.142326         1.345302
 H         0.615411        -1.497125         0.935356
 H        -0.289851        -2.107051        -0.159389
 H        -0.001670         1.438959         1.791900
 H        -0.222654         2.211457         0.167228
 H        -2.661313         1.855808         0.751134
