19
Iteration:  2806charge 0 multiplicity 1
 C        -3.845202        -0.276198         2.076379
 C        -2.461151        -0.121958         1.534088
 C        -1.739596        -1.481720         1.314173
 C        -0.690085        -1.276932         0.172869
 C         0.042866         0.136337         0.064060
 O         1.158285         0.425410         0.358410
 C        -0.960935         1.280455        -0.138279
 C        -1.994898         1.132622         0.968084
 O        -1.412892         0.739703         2.278284
 H        -3.969506        -1.125473         2.828549
 H        -4.306895         0.664333         2.560631
 H        -4.492721        -0.454332         1.213611
 H        -1.117770        -1.699578         2.173462
 H        -2.415791        -2.307510         1.041543
 H         0.089667        -2.121906         0.033053
 H        -1.139362        -1.424226        -0.841391
 H        -0.383020         2.176283        -0.043828
 H        -1.524642         1.261513        -1.076619
 H        -2.712131         1.967928         0.830512
