19
Iteration:    29charge 0 multiplicity 1
 C        -3.884387        -0.135571         2.262842
 C        -2.411069        -0.051352         1.585156
 C        -1.733673        -1.348899         1.187198
 C        -0.854934        -1.257294        -0.046627
 C         0.121000        -0.056607         0.181943
 O         1.316757         0.014635         0.440148
 C        -0.717675         1.217515        -0.069329
 C        -2.054123         1.148028         0.844853
 O        -1.655698         1.019965         2.239842
 H        -4.043934        -1.081547         2.786330
 H        -3.681828         0.805150         2.921182
 H        -4.788857        -0.086724         1.599009
 H        -1.228825        -1.825608         2.054247
 H        -2.598774        -2.008263         0.941721
 H        -0.285961        -2.179591        -0.269787
 H        -1.452832        -1.098879        -1.003089
 H        -0.126014         2.107936         0.165387
 H        -0.886536         1.070873        -1.178343
 H        -2.900066         1.837144         0.555860
