19
Iteration:  2771charge 0 multiplicity 1
 C        -3.849919        -0.331628         2.050844
 C        -2.473539        -0.131141         1.540012
 C        -1.688777        -1.429790         1.249430
 C        -0.525734        -1.192990         0.267620
 C         0.068379         0.144367         0.117180
 O         1.250149         0.182675        -0.024172
 C        -0.870663         1.316089         0.128712
 C        -2.098556         1.196441         0.954659
 O        -1.692884         0.834959         2.360494
 H        -3.939243        -1.172676         2.721692
 H        -4.257207         0.610278         2.571470
 H        -4.510847        -0.573492         1.247816
 H        -1.291466        -1.793497         2.225115
 H        -2.361804        -2.223901         0.985101
 H         0.270855        -1.830210         0.597391
 H        -0.916064        -1.328539        -0.774494
 H        -0.424050         2.211133         0.297379
 H        -1.145525         1.375886        -0.986105
 H        -2.915276         1.873116         0.823660
