19
Iteration:  1315charge 0 multiplicity 1
 C        -3.750489        -0.196782         2.298836
 C        -2.414844        -0.131384         1.570072
 C        -1.939055        -1.464425         0.832068
 C        -0.614281        -1.330035         0.088530
 C        -0.063594         0.065772         0.271767
 O         1.051279         0.429796         0.577967
 C        -0.980326         1.115523        -0.178267
 C        -1.952647         1.246365         0.994565
 O        -1.269977         0.802665         2.172443
 H        -3.716656        -0.571565         3.401466
 H        -4.052555         0.851039         2.354375
 H        -4.357013        -0.821636         1.564983
 H        -1.900534        -2.234923         1.679321
 H        -2.802599        -1.720133         0.199839
 H         0.079882        -2.241987         0.254589
 H        -0.801202        -1.451667        -0.940281
 H        -0.277670         1.883910        -0.142519
 H        -1.449185         1.009706        -1.128443
 H        -2.475390         2.208769         1.027232
