19
Iteration:  4227
 C        -3.943070        -0.387705         2.087586
 C        -2.497928        -0.191818         1.699229
 C        -1.904918        -1.346621         0.947983
 C        -0.390820        -1.158404         0.512379
 C         0.078850         0.242606         0.083360
 O         1.246946         0.367125        -0.190226
 C        -1.076374         1.298681         0.021475
 C        -1.999301         1.083518         1.191561
 O        -1.425571         0.688141         2.378111
 H        -4.141396        -1.515323         2.219167
 H        -4.270854         0.088177         2.970401
 H        -4.546407         0.002888         1.261571
 H        -1.937092        -2.296364         1.348345
 H        -2.486464        -1.459378        -0.046622
 H         0.160833        -1.366115         1.438551
 H         0.022300        -1.896800        -0.205574
 H        -0.592696         2.336425        -0.082755
 H        -1.710253         1.094311        -0.888890
 H        -2.668601         1.933425         1.249387
