19
Iteration:  1456charge 0 multiplicity 1
 C        -3.934546        -0.330955         1.572548
 C        -2.510296        -0.004479         1.615973
 C        -1.425683        -1.138025         1.637403
 C        -0.696713        -1.289202         0.264770
 C         0.074656        -0.034061         0.015579
 O         1.205203         0.081303        -0.435856
 C        -0.628139         1.165949         0.342716
 C        -1.970715         1.226909         1.082878
 O        -1.959228         0.883482         2.588831
 H        -4.192804        -0.911513         2.481575
 H        -4.611355         0.474267         1.675601
 H        -4.220955        -0.925017         0.694258
 H        -0.731031        -0.893349         2.439352
 H        -1.926582        -2.039545         1.840682
 H        -0.233950        -2.337327         0.166766
 H        -1.411556        -1.358149        -0.561763
 H         0.153030         1.922262         0.879941
 H        -0.969434         1.626576        -0.643218
 H        -2.544109         2.133428         0.984013
