19
Iteration:  2837charge 0 multiplicity 1
 C        -3.762217        -0.191627         2.249816
 C        -2.341191        -0.108127         1.595376
 C        -1.662622        -1.417994         1.011873
 C        -0.528820        -1.301208        -0.052764
 C        -0.010015         0.098454         0.100888
 O         1.143635         0.294562         0.597526
 C        -1.102777         1.143909        -0.214195
 C        -2.090066         1.180502         0.941451
 O        -1.524609         0.872001         2.358932
 H        -3.708052        -0.866894         3.080164
 H        -3.957239         0.919565         2.415937
 H        -4.292740        -0.579938         1.441497
 H        -1.264866        -2.010042         1.905358
 H        -2.390798        -2.160290         0.687148
 H         0.320385        -2.001246         0.116252
 H        -0.957617        -1.220037        -1.070024
 H        -0.686047         2.050871        -0.502648
 H        -1.889925         0.800072        -1.044727
 H        -2.942225         1.847277         0.891859
