19
Iteration:  3926
 C        -3.897767        -0.422461         1.401327
 C        -2.371428        -0.203629         1.495090
 C        -1.507422        -1.397282         1.368909
 C        -0.017537        -0.977536         0.854729
 C         0.030458         0.234699        -0.031687
 O         0.434851         0.051071        -1.165321
 C        -0.421492         1.514003         0.739042
 C        -1.855689         1.214920         1.418539
 O        -2.152097         0.620268         2.663772
 H        -4.205659        -1.158982         2.127081
 H        -4.461201         0.468215         1.491873
 H        -4.072309        -0.839185         0.375745
 H        -1.462631        -1.943257         2.290474
 H        -1.838336        -1.975541         0.573875
 H         0.650437        -0.775252         1.747861
 H         0.278623        -1.911237         0.424443
 H         0.280803         1.765908         1.586817
 H        -0.411107         2.335959        -0.005913
 H        -2.676354         2.014799         1.225364
