19
Iteration:   670charge 0 multiplicity 1
 C        -3.903658        -0.242762         2.130514
 C        -2.475293        -0.127153         1.681217
 C        -1.702897        -1.384441         1.254678
 C        -0.710814        -1.277670         0.038121
 C         0.103725         0.019278         0.072971
 O         1.308887         0.256927         0.207672
 C        -0.797984         1.217874        -0.012877
 C        -2.011931         1.215107         0.895323
 O        -1.662267         0.850101         2.355790
 H        -4.117365        -0.937723         2.948593
 H        -4.154500         0.753541         2.730823
 H        -4.500084        -0.469402         1.245762
 H        -1.201877        -1.834467         2.131305
 H        -2.541171        -2.137940         0.956654
 H        -0.096540        -2.112364        -0.145407
 H        -1.387713        -1.116534        -0.773215
 H        -0.210911         2.074938         0.065692
 H        -1.263788         1.189525        -1.042802
 H        -2.719554         2.120246         0.947429
