19
Iteration:  1002
 C        -3.815493        -0.291634         1.080975
 C        -2.361482        -0.066261         1.416535
 C        -1.580544        -1.465287         1.361914
 C        -0.019634        -1.055287         1.077136
 C         0.041764         0.109290         0.042878
 O         0.010488        -0.043248        -1.177897
 C        -0.238616         1.450396         0.903760
 C        -1.676849         1.351659         1.373816
 O        -2.055202         0.656330         2.665607
 H        -4.224655        -1.126032         1.696444
 H        -4.412818         0.626417         1.104205
 H        -3.893873        -0.677959        -0.001878
 H        -1.633107        -1.907975         2.361528
 H        -1.949352        -2.292355         0.736957
 H         0.385928        -0.727234         2.060246
 H         0.465516        -1.959385         0.827846
 H         0.464501         1.513346         1.673261
 H        -0.239256         2.416180         0.241899
 H        -2.330131         2.205096         1.175772
