19
Iteration:   209
 C        -3.931006        -0.161171         2.023965
 C        -2.518766        -0.012560         1.548076
 C        -1.947698        -1.317764         0.954457
 C        -0.436795        -1.346486         0.620108
 C         0.153795        -0.010018         0.166199
 O         1.300463         0.019955        -0.378804
 C        -0.707228         1.210207         0.210649
 C        -2.000398         1.278162         1.065020
 O        -1.792335         0.922172         2.497516
 H        -3.945520        -0.857171         2.986818
 H        -4.358730         0.782289         2.224824
 H        -4.561263        -0.625302         1.156340
 H        -2.254123        -2.195226         1.499703
 H        -2.465012        -1.348004         0.047408
 H         0.147497        -1.655237         1.567159
 H        -0.304795        -2.132949        -0.127686
 H        -0.046989         2.124367         0.427156
 H        -0.831326         1.338862        -0.849288
 H        -2.694695         2.092546         0.894108
