19
Iteration:  2510
 C        -3.973939        -0.471530         1.436294
 C        -2.502737        -0.131847         1.602383
 C        -1.476300        -1.297137         1.697620
 C        -0.504563        -1.252125         0.514829
 C         0.077246         0.086713         0.066544
 O         0.827854         0.210883        -0.903250
 C        -0.353232         1.336984         0.691051
 C        -1.791364         1.152438         1.109932
 O        -2.109780         0.913992         2.534565
 H        -4.494649        -0.583167         2.368703
 H        -4.614498         0.249323         0.772973
 H        -4.151503        -1.405452         1.009237
 H        -0.905264        -1.045824         2.618440
 H        -1.845229        -2.320554         1.849000
 H         0.395805        -1.872238         0.669005
 H        -1.117453        -1.521513        -0.347829
 H         0.327209         1.590889         1.614036
 H        -0.293581         2.099590        -0.139086
 H        -2.361007         2.016617         0.831030
