19
Iteration:  1614charge 0 multiplicity 1
 C        -3.652175        -0.339336         0.766541
 C        -2.352787        -0.006112         1.493199
 C        -1.436504        -1.179276         1.890014
 C        -0.272054        -1.393843         0.868604
 C         0.024821        -0.043934         0.115191
 O         0.074329         0.054724        -1.118298
 C        -0.237539         1.224018         0.857090
 C        -1.665506         1.287554         1.308867
 O        -2.187457         0.969897         2.626530
 H        -4.269246        -0.862086         1.485458
 H        -4.180587         0.570776         0.418701
 H        -3.453493        -0.855178        -0.183927
 H        -1.131839        -0.956356         2.943502
 H        -2.040874        -2.156393         2.032004
 H         0.530259        -1.783843         1.452514
 H        -0.561761        -2.210932         0.167279
 H         0.443042         1.385244         1.708683
 H        -0.082838         2.077411         0.194023
 H        -2.238305         2.094031         0.825975
