19
Iteration:   707
 C        -3.694216        -0.130240         2.221448
 C        -2.389623        -0.109765         1.477547
 C        -1.767204        -1.458621         1.113118
 C        -0.654822        -1.288248         0.048665
 C        -0.017794         0.103685         0.158541
 O         1.137783         0.165904         0.550189
 C        -1.021398         1.340600        -0.094823
 C        -2.119264         1.200164         0.927814
 O        -1.419588         0.746609         2.151162
 H        -3.594844        -0.480021         3.274918
 H        -4.028625         0.868497         2.189148
 H        -4.461865        -0.771438         1.766107
 H        -1.242984        -1.739266         2.078389
 H        -2.496961        -2.273016         0.914331
 H         0.115842        -2.094647         0.169349
 H        -1.050145        -1.393829        -0.953995
 H        -0.512513         2.404415        -0.054947
 H        -1.358157         1.152990        -1.124721
 H        -2.727644         2.115546         1.091712
