19
Iteration:  1095charge 0 multiplicity 1
 C        -3.989759        -0.430964         1.242992
 C        -2.418973        -0.039338         1.451406
 C        -1.577202        -1.285228         1.191854
 C        -0.049839        -1.084451         1.147392
 C         0.147586         0.072943         0.115032
 O         0.104288         0.010394        -1.128890
 C        -0.262369         1.387129         0.861324
 C        -1.700072         1.321260         1.302916
 O        -1.974376         0.695069         2.556075
 H        -4.264042        -1.364202         1.837508
 H        -4.507655         0.495358         1.498288
 H        -4.210922        -0.563269         0.160520
 H        -1.718841        -1.918577         2.193137
 H        -1.769626        -2.002869         0.320590
 H         0.359240        -0.684213         2.125644
 H         0.418308        -2.065624         0.976660
 H         0.403274         1.370703         1.728164
 H        -0.087579         2.275199         0.249317
 H        -2.380793         2.151811         1.081053
