19
Iteration:  1865charge 0 multiplicity 1
 C        -3.915750        -0.316349         1.856272
 C        -2.460878        -0.127336         1.582603
 C        -1.403785        -1.257169         1.483040
 C        -0.771767        -1.330471         0.108949
 C         0.041429         0.019290         0.011105
 O         1.250435         0.020169        -0.243015
 C        -0.605372         1.382376         0.433116
 C        -2.033399         1.202972         0.973993
 O        -1.981841         0.954794         2.423579
 H        -4.089911        -0.993245         2.738269
 H        -4.427717         0.619272         2.013586
 H        -4.446216        -0.855311         0.978906
 H        -0.646005        -1.012522         2.184278
 H        -1.938669        -2.086847         1.787440
 H        -0.093562        -2.166214         0.119305
 H        -1.546416        -1.419749        -0.636956
 H         0.190719         1.857387         1.149196
 H        -0.536598         2.014880        -0.444925
 H        -2.821242         1.844396         0.616698
