19
Iteration:  2209charge 0 multiplicity 1
 C        -4.030861        -0.137581         1.729677
 C        -2.491094        -0.155524         1.639258
 C        -1.746151        -1.433720         1.243118
 C        -0.264756        -1.265447         0.698733
 C         0.157742         0.106509         0.069691
 O         1.135543         0.165548        -0.669232
 C        -0.735137         1.303546         0.354709
 C        -2.026768         1.175708         1.141721
 O        -1.843214         0.790822         2.534463
 H        -4.550640        -1.106775         1.841921
 H        -4.320505         0.550594         2.617293
 H        -4.567219         0.176150         0.808872
 H        -1.679888        -2.037565         2.127515
 H        -2.280144        -1.967198         0.456736
 H         0.508350        -1.577358         1.390615
 H        -0.116153        -1.945836        -0.146288
 H        -0.115076         1.979069         0.862382
 H        -0.902585         1.820785        -0.570455
 H        -2.857448         1.964853         1.024543
