19
Iteration:  2760
 C        -3.860130        -0.319845         2.045885
 C        -2.435940        -0.158134         1.573428
 C        -1.714059        -1.389568         1.204566
 C        -0.512463        -1.243522         0.294125
 C         0.100854         0.142294         0.152077
 O         1.339388         0.166767        -0.142998
 C        -0.855810         1.360091         0.091984
 C        -2.053773         1.100349         1.045650
 O        -1.877071         0.924365         2.422615
 H        -3.749164        -1.080986         2.803629
 H        -4.246615         0.617893         2.575170
 H        -4.513965        -0.650051         1.266163
 H        -1.386235        -1.786699         2.187881
 H        -2.375825        -2.091787         0.736163
 H         0.270492        -1.972429         0.378680
 H        -0.812943        -1.530026        -0.759381
 H        -0.332670         2.190133         0.346409
 H        -1.263636         1.452866        -0.970053
 H        -2.853752         1.782043         0.861702
