19
Iteration:   605charge 0 multiplicity 1
 C        -3.951372        -0.371490         1.764601
 C        -2.490004        -0.083891         1.601014
 C        -1.644390        -1.330324         1.557059
 C        -0.664953        -1.316731         0.324932
 C         0.138765         0.057504         0.035129
 O         1.240419         0.123440        -0.452851
 C        -0.634773         1.342451         0.347202
 C        -1.961348         1.150462         1.036776
 O        -1.870917         0.937787         2.490062
 H        -4.160630        -0.954992         2.661972
 H        -4.466277         0.717923         1.905103
 H        -4.364530        -0.644133         0.801699
 H        -1.139569        -1.297409         2.554808
 H        -2.265806        -2.333071         1.411926
 H         0.021960        -2.121908         0.347089
 H        -1.295914        -1.454952        -0.537043
 H         0.013340         2.034948         0.910713
 H        -0.849561         1.942852        -0.624852
 H        -2.752646         2.036941         0.756533
