19
Iteration:   502charge 0 multiplicity 1
 C        -3.732376        -0.476696         1.243454
 C        -2.341328        -0.081971         1.615447
 C        -1.378372        -1.171662         1.859516
 C        -0.687606        -1.322509         0.456360
 C        -0.007961        -0.013652         0.011619
 O         0.689545         0.096196        -0.980035
 C        -0.258038         1.159052         0.959519
 C        -1.757070         1.205261         1.138512
 O        -2.312004         1.165797         2.490540
 H        -4.160072        -1.313215         1.908252
 H        -4.309065         0.360371         1.311686
 H        -3.564225        -0.956432         0.167447
 H        -0.665486        -0.870768         2.659683
 H        -1.891571        -2.052917         2.246211
 H         0.086702        -2.119736         0.337837
 H        -1.414142        -1.468069        -0.298558
 H         0.326869         1.101517         1.837569
 H        -0.032544         2.066587         0.512009
 H        -2.346548         1.781335         0.505656
