19
Iteration:  1963
 C        -3.813653        -0.086322         2.168466
 C        -2.447917        -0.153493         1.554362
 C        -1.803979        -1.497013         1.166514
 C        -0.600455        -1.298749         0.250577
 C         0.029221         0.116081         0.151110
 O         1.239722         0.302291         0.260335
 C        -0.910880         1.278517        -0.080308
 C        -2.061335         1.161760         0.923294
 O        -1.512621         0.708421         2.220953
 H        -4.190900        -0.898191         2.864685
 H        -3.958447         0.824318         2.666814
 H        -4.565490        -0.026915         1.277534
 H        -1.578163        -1.887508         2.174108
 H        -2.566070        -2.179901         0.802588
 H         0.207978        -1.916829         0.591975
 H        -0.917688        -1.538597        -0.743494
 H        -0.475345         2.342654        -0.006037
 H        -1.284642         1.212590        -1.066034
 H        -2.829748         1.928935         0.924489
