19
Iteration:  4900charge 0 multiplicity 1
 C        -3.882551        -0.531557         1.267252
 C        -2.459599        -0.170218         1.798076
 C        -1.329495        -1.239835         1.750644
 C        -0.355818        -1.234915         0.562538
 C         0.092463         0.065131        -0.030763
 O         0.593119         0.162644        -1.150886
 C        -0.395925         1.315915         0.797182
 C        -1.801887         1.186595         1.250157
 O        -2.205273         1.015194         2.613272
 H        -4.698507        -0.956511         1.944301
 H        -4.259171         0.059470         0.491674
 H        -3.778540        -1.536801         0.760655
 H        -0.754978        -0.864883         2.669907
 H        -1.825915        -2.167956         1.821584
 H         0.430032        -1.946675         0.618818
 H        -0.847950        -1.720332        -0.313810
 H         0.045893         1.578422         1.704241
 H        -0.367025         2.291725         0.047432
 H        -2.434217         2.016343         0.888180
