19
Iteration:  1153charge 0 multiplicity 1
 C        -4.011891        -0.192642         1.566635
 C        -2.480291        -0.128520         1.575739
 C        -1.705292        -1.431255         1.082162
 C        -0.147005        -1.227153         0.868436
 C         0.115649         0.074331         0.122956
 O         0.822852         0.127751        -0.902608
 C        -0.634920         1.372717         0.544293
 C        -1.913844         1.239607         1.274626
 O        -1.854478         0.723967         2.624555
 H        -4.364833        -0.590332         2.532963
 H        -4.585565         0.710640         1.569814
 H        -4.390883        -0.881159         0.795335
 H        -1.937894        -2.332182         1.746691
 H        -2.047388        -1.729577         0.082963
 H         0.359221        -0.934392         1.808448
 H         0.354621        -2.068144         0.422419
 H         0.080816         1.940287         1.124372
 H        -0.765186         2.093632        -0.409186
 H        -2.724951         1.955539         1.131702
