19
Iteration:  4372charge 0 multiplicity 1
 C        -3.827134        -0.389160         2.224363
 C        -2.432356        -0.134459         1.683831
 C        -1.858487        -1.412471         1.036451
 C        -0.550616        -1.221842         0.172940
 C         0.041632         0.176345         0.159164
 O         1.242486         0.442126         0.141200
 C        -0.980759         1.218664        -0.147055
 C        -1.972404         1.063486         1.062264
 O        -1.510381         0.788653         2.385581
 H        -3.933968        -0.167280         3.251525
 H        -4.538553         0.361786         1.736423
 H        -4.273143        -1.374499         1.981642
 H        -1.791957        -2.241860         1.670694
 H        -2.735322        -1.588355         0.325974
 H         0.251501        -2.037098         0.249176
 H        -0.864911        -1.381135        -0.851571
 H        -0.513645         2.285501        -0.162468
 H        -1.628687         1.206865        -1.060711
 H        -2.553306         1.927555         0.933360
