19
Iteration:  2560
 C        -3.788629        -0.561212         1.491587
 C        -2.401363        -0.038887         1.771607
 C        -1.313029        -1.205533         1.642439
 C        -0.712006        -1.293160         0.202948
 C         0.045230        -0.021327        -0.063309
 O         1.049861         0.148198        -0.778163
 C        -0.432040         1.185462         0.741828
 C        -1.919687         1.222361         1.203553
 O        -2.341277         1.162236         2.572133
 H        -4.216205        -1.252822         2.270191
 H        -4.446067         0.242468         1.401115
 H        -3.886779        -1.227308         0.540070
 H        -0.465266        -1.222847         2.322963
 H        -1.876708        -2.116264         1.821143
 H         0.124104        -1.988190         0.154501
 H        -1.511059        -1.459815        -0.555650
 H         0.119284         1.220371         1.607511
 H        -0.132705         2.021956         0.093607
 H        -2.658248         1.662770         0.533434
