19
Iteration:  2613charge 0 multiplicity 1
 C        -3.877788        -0.538864         1.569769
 C        -2.464430        -0.092539         1.582595
 C        -1.339677        -1.157553         1.603939
 C        -0.610985        -1.244628         0.324922
 C         0.069727         0.106966        -0.007198
 O         1.026698        -0.037612        -0.691737
 C        -0.511017         1.397816         0.655350
 C        -1.965784         1.231092         1.154714
 O        -2.185122         0.941867         2.541268
 H        -4.007327        -1.622086         1.911600
 H        -4.377995         0.141983         2.187857
 H        -4.149288        -0.440326         0.443692
 H        -0.600966        -0.955863         2.416133
 H        -1.842077        -2.183107         1.820569
 H         0.273093        -1.957876         0.247378
 H        -1.269987        -1.534898        -0.553123
 H         0.213794         1.757086         1.467725
 H        -0.511784         2.146966        -0.111167
 H        -2.661954         2.035632         0.746086
