19
Iteration:  4313charge 0 multiplicity 1
 C        -3.720487        -0.347938         2.432106
 C        -2.494637        -0.179433         1.591878
 C        -2.044934        -1.442104         0.792719
 C        -0.552662        -1.252650         0.462594
 C         0.048310         0.233743         0.228857
 O         1.259565         0.504714         0.151344
 C        -0.957924         1.298994        -0.135125
 C        -2.064525         1.167639         0.932915
 O        -1.414198         0.601557         2.202618
 H        -3.423332        -0.347139         3.520694
 H        -4.389254         0.381552         2.161325
 H        -4.106775        -1.300213         2.178732
 H        -2.365714        -2.423039         1.223568
 H        -2.593406        -1.312505        -0.169242
 H         0.052013        -1.853742         1.102764
 H        -0.438542        -1.666789        -0.587459
 H        -0.470077         2.272476        -0.063533
 H        -1.440800         1.086264        -1.125166
 H        -2.740500         2.013636         1.217294
