19
Iteration:   876
 C        -3.942614        -0.225186         1.868774
 C        -2.443308        -0.084297         1.568280
 C        -1.817605        -1.219398         0.859974
 C        -0.370081        -1.219845         0.779044
 C         0.056550         0.084514         0.134912
 O         1.096176         0.226147        -0.481628
 C        -0.861037         1.218774         0.154867
 C        -1.913863         1.170444         1.232452
 O        -1.662869         0.628310         2.617292
 H        -4.181284        -1.041784         2.562822
 H        -4.249376         0.713695         2.512356
 H        -4.398283        -0.410977         0.910628
 H        -2.165520        -2.179896         1.236849
 H        -2.171300        -1.149957        -0.171461
 H         0.000962        -1.450580         1.786435
 H         0.095299        -2.005927         0.014879
 H        -0.199419         2.234165         0.133157
 H        -1.471783         1.118312        -0.788125
 H        -2.532178         2.080223         1.242783
