19
Iteration:   460
 C        -3.702762        -0.364090         0.992623
 C        -2.425639        -0.084312         1.595711
 C        -1.399007        -1.104890         1.890653
 C        -0.421840        -1.378879         0.579323
 C         0.057741        -0.034233         0.059645
 O         0.387546         0.067568        -1.138564
 C        -0.233637         1.178135         1.032078
 C        -1.776055         1.192358         1.241564
 O        -2.252420         1.099355         2.559633
 H        -4.122983        -1.220542         1.609965
 H        -4.425234         0.330007         1.068323
 H        -3.554141        -0.598336        -0.112750
 H        -0.802275        -0.653808         2.765617
 H        -1.898205        -2.090273         2.264610
 H         0.430959        -2.071921         0.823329
 H        -1.004574        -1.827681        -0.141045
 H         0.311165         1.040431         1.955698
 H         0.140600         2.038059         0.540920
 H        -2.314104         1.825529         0.555732
