19
Iteration:  3892
 C        -3.919458        -0.447692         1.569906
 C        -2.431178        -0.212838         1.543421
 C        -1.573663        -1.348609         1.128876
 C        -0.006643        -1.054364         1.028990
 C         0.121261         0.105431         0.050148
 O         0.452969         0.253935        -1.066498
 C        -0.559261         1.376054         0.712956
 C        -1.960109         1.183050         1.234318
 O        -1.909204         0.705901         2.567386
 H        -4.298508        -0.786110         2.536388
 H        -4.414043         0.401606         1.288008
 H        -4.066396        -1.225780         0.782676
 H        -1.760050        -2.329347         1.588016
 H        -1.857696        -1.560921         0.164846
 H         0.445703        -0.633155         1.986366
 H         0.456991        -2.023659         0.732646
 H         0.026915         1.761895         1.643989
 H        -0.473392         2.155891         0.003040
 H        -2.686470         1.951415         0.802889
