19
Iteration:  2916charge 0 multiplicity 1
 C        -3.779539        -0.234771         2.388787
 C        -2.494862        -0.130695         1.529397
 C        -1.769677        -1.428988         1.007892
 C        -0.539084        -1.222811         0.120577
 C         0.040480         0.148606         0.250626
 O         1.227988         0.320479         0.480905
 C        -0.998277         1.216339        -0.127845
 C        -2.172585         1.156978         0.829589
 O        -1.501480         0.723045         2.114826
 H        -3.385023        -0.604153         3.432696
 H        -4.113723         0.738290         2.695274
 H        -4.583068        -0.894947         1.968857
 H        -1.351992        -1.964994         1.936603
 H        -2.517490        -2.091796         0.469105
 H         0.227958        -2.112100         0.100346
 H        -0.803024        -1.155035        -0.975596
 H        -0.508096         2.249720         0.024297
 H        -1.092336         1.272200        -1.335965
 H        -2.776530         2.094645         0.962965
