19
Iteration:   627charge 0 multiplicity 1
 C        -3.933101        -0.387316         1.895958
 C        -2.430879        -0.072774         1.595920
 C        -1.612143        -1.343148         1.401787
 C        -0.623565        -1.242029         0.259342
 C         0.054669         0.064400         0.050894
 O         1.236767        -0.017120        -0.215473
 C        -0.714520         1.373447         0.186003
 C        -1.962996         1.334187         1.065114
 O        -1.867393         0.911430         2.454564
 H        -3.902331        -1.248135         2.561062
 H        -4.582022         0.437439         2.537804
 H        -4.441629        -0.549895         0.948684
 H        -1.062652        -1.640608         2.335803
 H        -2.405904        -2.188761         1.114518
 H         0.189839        -1.897162         0.374719
 H        -1.085455        -1.451679        -0.680607
 H         0.046036         2.118679         0.449396
 H        -0.914415         1.676018        -0.914019
 H        -2.926782         1.997787         0.778640
