19
Iteration:  4821
 C        -3.867184        -0.500649         1.396261
 C        -2.445430        -0.168370         1.703693
 C        -1.392358        -1.276173         1.856479
 C        -0.405508        -1.310948         0.588643
 C         0.138433         0.134966        -0.039452
 O         0.621335         0.254255        -1.148685
 C        -0.306835         1.322627         0.836862
 C        -1.819239         1.077785         1.085282
 O        -2.247803         1.034373         2.514910
 H        -4.090915        -1.618455         1.481582
 H        -4.602228        -0.196037         2.126408
 H        -4.128468        -0.257659         0.353641
 H        -0.887307        -0.993663         2.800575
 H        -1.823381        -2.287598         2.066320
 H         0.406650        -2.042732         0.809897
 H        -0.972747        -1.637582        -0.304387
 H         0.347637         1.271868         1.702586
 H        -0.472498         2.309830         0.280883
 H        -2.453297         1.779389         0.452426
