19
Iteration:  2889charge 0 multiplicity 1
 C        -3.582703        -0.419014         2.385960
 C        -2.473478        -0.140932         1.498928
 C        -1.907965        -1.443581         1.088171
 C        -0.737754        -1.221612         0.131748
 C         0.007033         0.240734         0.213439
 O         1.177290         0.289635         0.625605
 C        -0.879687         1.327066        -0.248442
 C        -2.066026         1.155311         0.768358
 O        -1.504906         0.805886         2.089305
 H        -3.060934        -0.834835         3.194538
 H        -4.025588         0.555835         2.821378
 H        -4.198737        -1.175832         1.907169
 H        -1.602697        -2.142334         1.972890
 H        -2.725532        -1.984429         0.622738
 H         0.020053        -1.876236         0.366301
 H        -0.984796        -1.314656        -0.940141
 H        -0.510939         2.316809        -0.126267
 H        -1.105736         1.243070        -1.368323
 H        -2.718722         1.998741         0.853386
