19
Iteration:  1000
 C        -3.826874        -0.304468         1.098273
 C        -2.354917        -0.067983         1.431867
 C        -1.600756        -1.459538         1.349103
 C        -0.014870        -1.079347         1.059586
 C         0.042392         0.121282         0.051623
 O         0.031171        -0.049377        -1.172249
 C        -0.226696         1.457024         0.899810
 C        -1.687356         1.351362         1.362585
 O        -2.059381         0.673276         2.674715
 H        -4.225902        -1.113554         1.777287
 H        -4.393987         0.552949         1.041550
 H        -3.862810        -0.663148         0.014971
 H        -1.554683        -1.903366         2.272354
 H        -1.956317        -2.187173         0.682612
 H         0.324798        -0.774893         2.077257
 H         0.442555        -1.953879         0.783867
 H         0.492655         1.483210         1.674686
 H        -0.305617         2.476818         0.207200
 H        -2.372781         2.154761         1.159922
