19
Iteration:  1667
 C        -3.762820        -0.310991         0.979937
 C        -2.352126        -0.071242         1.516252
 C        -1.446866        -1.253272         1.790644
 C        -0.141941        -1.342472         0.899387
 C         0.023077        -0.031299         0.083020
 O         0.034112         0.089717        -1.119151
 C        -0.126645         1.184440         1.043331
 C        -1.700475         1.172992         1.181991
 O        -2.226538         1.131182         2.435146
 H        -4.259890        -1.130772         1.373705
 H        -4.456357         0.586981         1.076967
 H        -3.610601        -0.500682        -0.058697
 H        -1.277542        -1.148737         2.852187
 H        -2.008626        -2.109872         1.601230
 H         0.778019        -1.639071         1.442090
 H        -0.211673        -2.293817         0.340112
 H         0.308586         0.768239         2.016501
 H         0.187937         2.223040         0.711158
 H        -2.177115         1.825859         0.416078
