19
Iteration:  1043
 C        -3.780716        -0.121895         0.947638
 C        -2.319893        -0.143094         1.500139
 C        -1.446625        -1.456949         1.346645
 C         0.105606        -1.139564         1.095848
 C         0.071843         0.102082         0.167824
 O        -0.202673        -0.053150        -1.021464
 C        -0.290718         1.438660         0.845209
 C        -1.772189         1.209332         1.309618
 O        -2.029576         0.711836         2.628402
 H        -4.264992        -1.093851         1.181542
 H        -4.346565         0.628686         1.344523
 H        -3.684876         0.163243        -0.112704
 H        -1.565492        -1.982120         2.258335
 H        -1.727049        -1.980608         0.489254
 H         0.663258        -0.884217         2.020511
 H         0.626604        -1.836885         0.525902
 H         0.160789         1.789287         1.751940
 H        -0.371052         2.265196        -0.041357
 H        -2.480716         1.997019         1.091189
