19
Iteration:   109charge 0 multiplicity 1
 C        -3.815441        -0.052546         2.231659
 C        -2.379361        -0.061628         1.602470
 C        -1.757649        -1.340223         1.095179
 C        -0.729687        -1.331848        -0.088076
 C         0.003157        -0.000389         0.058712
 O         1.035373         0.132840         0.785011
 C        -0.926261         1.196130        -0.322697
 C        -1.895224         1.133065         0.952726
 O        -1.379635         0.853302         2.251165
 H        -4.008214        -0.858660         2.987060
 H        -3.886841         0.925922         2.800506
 H        -4.456117         0.096871         1.291623
 H        -1.457959        -1.898164         1.940826
 H        -2.530532        -1.895138         0.651266
 H        -0.100009        -2.173882        -0.014413
 H        -1.276335        -1.325449        -1.059805
 H        -0.522041         2.187717        -0.498233
 H        -1.513039         0.912063        -1.193728
 H        -2.567946         2.019743         0.971364
