19
Iteration:   633charge 0 multiplicity 1
 C        -3.921964        -0.411957         1.940109
 C        -2.437980        -0.021632         1.581163
 C        -1.618889        -1.335857         1.341683
 C        -0.604892        -1.218574         0.205977
 C         0.040709         0.064253         0.086806
 O         1.243549        -0.031414        -0.155154
 C        -0.724909         1.343507         0.174281
 C        -2.025337         1.292722         1.076718
 O        -1.815922         0.946914         2.446774
 H        -4.000150        -1.345643         2.544422
 H        -4.308658         0.414111         2.369746
 H        -4.640284        -0.451506         1.046581
 H        -1.220469        -1.548920         2.327376
 H        -2.207712        -2.117763         1.043720
 H         0.224225        -1.995929         0.347339
 H        -1.121028        -1.513274        -0.770072
 H        -0.003585         2.177567         0.339754
 H        -1.145621         1.514274        -0.798920
 H        -2.743905         1.954907         0.797568
