19
Iteration:  2292
 C        -4.138567        -0.259589         1.650227
 C        -2.567025        -0.113828         1.539106
 C        -1.611651        -1.303667         0.861003
 C        -0.099000        -0.966634         1.222706
 C         0.245110         0.120347         0.216969
 O         0.557256        -0.096820        -0.969245
 C        -0.493389         1.465222         0.515570
 C        -1.870912         1.160597         1.199479
 O        -1.796693         0.592685         2.520394
 H        -4.422543        -0.546334         2.676119
 H        -4.580091         0.809762         1.466405
 H        -4.488136        -0.933272         0.858139
 H        -1.908627        -2.369508         1.216906
 H        -1.803383        -1.443549        -0.249191
 H         0.098332        -0.567150         2.284918
 H         0.419434        -1.914708         1.050939
 H         0.048351         1.991152         1.356893
 H        -0.450000         1.994592        -0.428550
 H        -2.522322         2.080728         1.255831
