19
Iteration:   268
 C        -4.067598        -0.036549         1.630108
 C        -2.583166        -0.076029         1.468320
 C        -1.761592        -1.344835         1.033878
 C        -0.224441        -1.007722         1.088577
 C         0.111854         0.080864         0.118113
 O         0.911547        -0.255505        -0.803781
 C        -0.641468         1.467902         0.337505
 C        -1.771809         1.183926         1.307730
 O        -1.782424         0.576127         2.529806
 H        -4.600108        -0.880857         2.087086
 H        -4.516578         0.953588         2.150194
 H        -4.433651        -0.043765         0.626465
 H        -1.856171        -2.126445         1.780193
 H        -2.044161        -1.776576         0.063501
 H        -0.116931        -0.528661         2.090857
 H         0.469023        -1.914292         1.018755
 H        -0.091211         2.314728         0.728206
 H        -1.075816         1.783789        -0.615688
 H        -2.394046         2.134459         1.414362
