19
Iteration:  2567charge 0 multiplicity 1
 C        -3.822811        -0.570516         1.466234
 C        -2.348612        -0.103262         1.837028
 C        -1.367359        -1.204449         1.692132
 C        -0.793707        -1.266385         0.205245
 C         0.025681        -0.036861        -0.088525
 O         1.086696         0.225811        -0.751149
 C        -0.433864         1.206389         0.752642
 C        -1.893093         1.135325         1.154184
 O        -2.286607         1.178001         2.508192
 H        -4.022391        -1.398052         2.176657
 H        -4.493428         0.335729         1.632127
 H        -3.709038        -1.006317         0.477253
 H        -0.531363        -1.107775         2.431818
 H        -1.929081        -2.201147         1.891487
 H        -0.164587        -2.250126         0.100902
 H        -1.651564        -1.502039        -0.437229
 H         0.282587         1.416314         1.678525
 H        -0.222292         2.019903         0.081684
 H        -2.623535         1.610454         0.404756
