19
Iteration:  3290charge 0 multiplicity 1
 C        -3.815850        -0.496350         1.201293
 C        -2.374559        -0.128622         1.682513
 C        -1.352457        -1.246886         1.754334
 C        -0.309292        -1.271625         0.606398
 C         0.020913         0.099192        -0.045142
 O         0.623519         0.162675        -1.091927
 C        -0.412690         1.344617         0.848243
 C        -1.818687         1.198570         1.217970
 O        -2.307207         0.972818         2.623475
 H        -4.068423        -1.559080         1.370133
 H        -4.686847         0.067027         1.617226
 H        -3.820421        -0.459464         0.101441
 H        -0.933451        -1.198175         2.733986
 H        -1.866717        -2.238088         1.821610
 H         0.568117        -1.831976         0.919247
 H        -0.730445        -1.828924        -0.278592
 H         0.170578         1.334681         1.699053
 H        -0.169479         2.188176         0.237923
 H        -2.654212         1.666454         0.855995
