19
Iteration:  1582
 C        -3.629557        -0.401724         0.964842
 C        -2.319951        -0.082589         1.585725
 C        -1.479299        -1.287114         1.861878
 C        -0.444841        -1.332315         0.714841
 C        -0.020719         0.045540         0.079455
 O         0.294357        -0.002819        -1.081748
 C        -0.235642         1.311775         0.961485
 C        -1.705737         1.235540         1.210787
 O        -2.193139         1.117123         2.514666
 H        -4.287856        -0.929607         1.702413
 H        -4.172895         0.535020         0.689730
 H        -3.499551        -1.124861         0.087548
 H        -0.980793        -1.181510         2.863834
 H        -2.170208        -2.238384         1.909291
 H         0.441157        -1.784697         1.080303
 H        -0.953132        -1.925444        -0.059681
 H         0.309224         1.101554         1.863180
 H         0.094365         2.252357         0.633932
 H        -2.260801         1.889129         0.521707
