19
Iteration:   862charge 0 multiplicity 1
 C        -3.891097        -0.166535         1.962958
 C        -2.463084        -0.098111         1.644384
 C        -1.916002        -1.279702         0.777616
 C        -0.339334        -1.260499         0.706875
 C         0.121859         0.085796         0.205305
 O         1.192353         0.293416        -0.337483
 C        -0.995087         1.165892         0.018973
 C        -1.926918         1.266710         1.209121
 O        -1.622990         0.580574         2.558636
 H        -4.065052        -1.041635         2.573444
 H        -4.233075         0.718137         2.415088
 H        -4.602682        -0.188630         1.130959
 H        -2.340644        -2.256236         1.192844
 H        -2.408146        -1.143791        -0.213196
 H         0.233262        -1.447967         1.661306
 H        -0.031287        -1.999467         0.007671
 H        -0.449857         2.136758        -0.280706
 H        -1.498528         0.878049        -0.857557
 H        -2.633958         2.078506         1.324195
