19
Iteration:   378
 C        -4.034881        -0.174210         1.127681
 C        -2.434151        -0.102986         1.457967
 C        -1.437238        -1.354207         1.595998
 C         0.060463        -1.304076         0.990480
 C         0.043925        -0.033423         0.090690
 O         0.157972         0.091253        -1.122632
 C        -0.262465         1.194724         0.962167
 C        -1.705370         1.222134         1.181194
 O        -2.130668         1.003210         2.487607
 H        -4.602649        -0.642577         1.902696
 H        -4.226162         0.993489         0.877434
 H        -4.129844        -0.868530         0.278049
 H        -1.321234        -1.637712         2.596089
 H        -2.014189        -2.109581         1.186691
 H         0.710951        -1.218708         1.828940
 H         0.266770        -2.360253         0.491536
 H         0.412075         1.020178         1.787044
 H         0.081110         2.149465         0.450455
 H        -2.270867         2.073140         0.648134
