19
Iteration:   651
 C        -3.890136        -0.317693         2.018638
 C        -2.485293        -0.082447         1.564197
 C        -1.701850        -1.306102         1.249716
 C        -0.683805        -1.297172         0.100529
 C         0.126250         0.025347         0.121073
 O         1.356694         0.100310         0.006203
 C        -0.884249         1.252132         0.112242
 C        -2.014547         1.198128         1.059027
 O        -1.716470         0.981674         2.418370
 H        -3.804410        -1.239088         2.593272
 H        -4.394508         0.464360         2.720254
 H        -4.494610        -0.432509         1.161821
 H        -1.051043        -1.542716         2.124595
 H        -2.479395        -2.156545         1.161899
 H        -0.022778        -2.160274         0.179210
 H        -1.145342        -1.284270        -0.890848
 H        -0.354949         2.268149         0.304935
 H        -1.142722         1.309409        -0.981206
 H        -2.787809         2.081686         0.923731
