19
Iteration:  2884charge 0 multiplicity 1
 C        -3.588945        -0.415755         2.382804
 C        -2.425814        -0.102954         1.510243
 C        -1.906711        -1.443700         1.074403
 C        -0.713966        -1.230356         0.135834
 C         0.024556         0.207977         0.183156
 O         1.113954         0.298100         0.632719
 C        -0.894515         1.317366        -0.270163
 C        -2.053530         1.170090         0.753146
 O        -1.520347         0.815093         2.136216
 H        -2.915443        -0.944507         3.154933
 H        -4.021827         0.475770         2.734938
 H        -4.246331        -1.198638         1.957033
 H        -1.563769        -2.134988         1.794952
 H        -2.758955        -2.021759         0.634910
 H         0.100706        -2.008398         0.394840
 H        -1.065913        -1.268222        -0.906221
 H        -0.461937         2.340062         0.014929
 H        -0.966302         1.157582        -1.344230
 H        -2.736420         2.052756         0.829112
