19
Iteration:  2961charge 0 multiplicity 1
 C        -3.900766        -0.271183         2.000618
 C        -2.414598        -0.123167         1.615761
 C        -1.783083        -1.437243         1.170920
 C        -0.509948        -1.284634         0.200301
 C         0.046968         0.107333         0.118937
 O         1.213957         0.361297         0.137855
 C        -1.024833         1.243549        -0.113081
 C        -1.941958         1.204113         1.077287
 O        -1.571094         0.787120         2.478442
 H        -4.067102        -1.038871         2.835245
 H        -4.291085         0.654753         2.263472
 H        -4.221206        -0.633180         0.988431
 H        -1.527390        -2.214016         1.897114
 H        -2.556693        -1.953769         0.513018
 H         0.365976        -1.904726         0.546772
 H        -0.869343        -1.663351        -0.798143
 H        -0.410594         2.249079        -0.147758
 H        -1.527939         1.117864        -1.161947
 H        -2.678576         2.038214         1.161329
