19
Iteration:  1218
 C        -3.943221        -0.247204         2.135686
 C        -2.526160        -0.146352         1.472077
 C        -1.892475        -1.297267         0.773522
 C        -0.410878        -1.155334         0.717339
 C         0.051740         0.114046         0.130928
 O         1.198795         0.181422        -0.254067
 C        -0.831537         1.323627         0.123806
 C        -1.956511         1.195155         1.146289
 O        -1.605905         0.629586         2.408038
 H        -3.976785        -1.202859         2.677812
 H        -3.972092         0.555578         2.870688
 H        -4.748024        -0.235348         1.388282
 H        -2.193148        -2.359239         1.139780
 H        -2.295012        -1.327334        -0.272725
 H         0.106195        -1.223398         1.729167
 H         0.117562        -1.943972         0.197100
 H        -0.305355         2.187731         0.332709
 H        -1.290033         1.374584        -0.922235
 H        -2.662528         2.036407         1.184757
