19
Iteration:  1408
 C        -3.842733        -0.356375         1.941969
 C        -2.367183        -0.060567         1.682592
 C        -1.547074        -1.374643         1.339030
 C        -0.734628        -1.214843         0.090032
 C         0.036356         0.041611         0.090355
 O         1.255658        -0.003458         0.076726
 C        -0.815181         1.334894         0.096269
 C        -1.998804         1.157896         0.959772
 O        -1.789558         1.050562         2.397741
 H        -4.072159        -1.107810         2.699530
 H        -4.420708         0.540781         2.309673
 H        -4.350369        -0.597368         0.985716
 H        -1.052288        -1.721015         2.264218
 H        -2.351660        -2.139734         1.138709
 H        -0.037365        -2.004216        -0.180232
 H        -1.463383        -1.265893        -0.771266
 H        -0.224638         2.193056         0.549798
 H        -1.169111         1.592839        -0.905184
 H        -2.922360         1.706552         0.717422
