19
Iteration:   626charge 0 multiplicity 1
 C        -3.933705        -0.376714         1.892300
 C        -2.432832        -0.080600         1.598838
 C        -1.613908        -1.345493         1.410345
 C        -0.629026        -1.247188         0.268251
 C         0.058488         0.063658         0.046273
 O         1.237383        -0.012160        -0.225891
 C        -0.711619         1.381855         0.186146
 C        -1.956804         1.336875         1.061023
 O        -1.874576         0.907491         2.455657
 H        -3.896554        -1.247842         2.563864
 H        -4.582361         0.408068         2.537178
 H        -4.425998        -0.587204         0.905487
 H        -1.049160        -1.651829         2.324692
 H        -2.410659        -2.175595         1.148368
 H         0.196810        -1.902717         0.377919
 H        -1.087169        -1.443533        -0.671118
 H         0.025518         2.089868         0.474852
 H        -0.885006         1.692363        -0.902685
 H        -2.903767         1.988875         0.798240
