19
Iteration:  2913
 C        -3.785515        -0.272036         2.421321
 C        -2.489781        -0.136489         1.512543
 C        -1.799036        -1.427152         1.004603
 C        -0.542904        -1.210554         0.138258
 C         0.032839         0.146271         0.250122
 O         1.237002         0.307178         0.502350
 C        -1.004653         1.250146        -0.127258
 C        -2.153730         1.181584         0.806335
 O        -1.484143         0.726034         2.081211
 H        -3.360134        -0.639300         3.360598
 H        -4.111342         0.808335         2.707405
 H        -4.497131        -0.928134         1.990216
 H        -1.313889        -2.025936         1.895538
 H        -2.498056        -2.144590         0.557553
 H         0.157919        -2.079212         0.141617
 H        -0.879856        -1.054791        -0.906833
 H        -0.591977         2.204344         0.010127
 H        -1.065007         1.198956        -1.306264
 H        -2.813736         2.032783         0.939590
