19
Iteration:  4848charge 0 multiplicity 1
 C        -3.811710        -0.479273         1.330390
 C        -2.347637        -0.174447         1.591765
 C        -1.267212        -1.222367         1.795026
 C        -0.342464        -1.286202         0.525379
 C        -0.018639         0.039368         0.074074
 O         0.512916         0.155655        -1.005933
 C        -0.414053         1.304738         0.848822
 C        -1.916482         1.300895         1.147352
 O        -2.159753         0.934977         2.492848
 H        -4.164911        -1.438330         1.637673
 H        -4.517165         0.246360         1.849036
 H        -4.095316        -0.476786         0.273985
 H        -0.744321        -0.927300         2.786095
 H        -1.852762        -2.146152         1.843009
 H         0.634187        -1.735555         0.758389
 H        -0.707674        -1.893980        -0.333097
 H         0.282961         1.425500         1.735943
 H        -0.326207         2.124891         0.093353
 H        -2.622801         1.866941         0.579665
