19
Iteration:  1432charge 0 multiplicity 1
 C        -3.925458        -0.317290         1.741832
 C        -2.445624        -0.108229         1.658051
 C        -1.475800        -1.321474         1.509488
 C        -0.757444        -1.273539         0.153376
 C         0.098259         0.033566         0.028243
 O         1.292120         0.003060        -0.190027
 C        -0.723379         1.326765         0.149212
 C        -1.995561         1.259984         1.134884
 O        -1.911091         0.974548         2.516397
 H        -4.275689        -1.002723         2.564096
 H        -4.421827         0.533676         1.970084
 H        -4.378805        -0.650304         0.770390
 H        -0.735151        -1.164735         2.271585
 H        -1.936577        -2.274474         1.723358
 H        -0.045643        -2.166934         0.047045
 H        -1.410510        -1.439518        -0.718515
 H         0.056483         2.223334         0.368691
 H        -1.266344         1.491766        -0.794390
 H        -2.826785         1.894544         0.870702
