19
Iteration:  4004
 C        -3.871208        -0.457198         1.383871
 C        -2.384825        -0.140242         1.490033
 C        -1.402970        -1.374378         1.293632
 C         0.013133        -1.006696         0.892517
 C        -0.010665         0.193783         0.017496
 O         0.287874         0.072756        -1.144881
 C        -0.378733         1.377768         0.874581
 C        -1.859384         1.231379         1.273808
 O        -2.147271         0.731936         2.638151
 H        -4.154299        -1.399008         1.738883
 H        -4.339506         0.318250         2.031300
 H        -4.256826        -0.465769         0.355412
 H        -1.282193        -1.926916         2.182129
 H        -1.697763        -2.103891         0.565850
 H         0.651390        -0.855086         1.780672
 H         0.300240        -1.944685         0.438621
 H         0.260425         1.345040         1.744477
 H        -0.346918         2.406202         0.321929
 H        -2.538272         2.138489         0.999064
