19
Iteration:  4231
 C        -3.869475        -0.396456         2.063454
 C        -2.483126        -0.184040         1.693470
 C        -1.973252        -1.356468         0.908801
 C        -0.386837        -1.159238         0.532439
 C         0.055626         0.230646         0.098276
 O         1.248816         0.408437        -0.177360
 C        -1.093242         1.232405         0.037189
 C        -1.997702         1.103255         1.193363
 O        -1.402850         0.702932         2.368272
 H        -4.151861        -1.407581         2.250296
 H        -4.255136         0.125694         3.030565
 H        -4.532165        -0.030844         1.201629
 H        -1.987618        -2.391599         1.397405
 H        -2.476576        -1.516943        -0.022031
 H         0.070361        -1.379328         1.532391
 H        -0.127491        -1.841683        -0.287313
 H        -0.654071         2.245053        -0.075592
 H        -1.606034         1.120153        -0.899472
 H        -2.668257         1.943740         1.285210
