19
Iteration:  3765
 C        -3.930182        -0.401422         1.969970
 C        -2.504189        -0.220737         1.489700
 C        -1.719865        -1.395622         1.138547
 C        -0.340388        -1.182628         0.598143
 C         0.032322         0.199905         0.087123
 O         1.159909         0.426530        -0.400295
 C        -0.954415         1.350316         0.174670
 C        -1.996045         1.213016         1.209160
 O        -1.639735         0.604969         2.419861
 H        -4.108298        -1.491703         2.121815
 H        -4.217977         0.197664         2.891782
 H        -4.690111        -0.187885         1.129743
 H        -1.786560        -1.924955         2.126152
 H        -2.190014        -2.032373         0.264858
 H         0.365704        -1.429289         1.368572
 H        -0.184670        -1.844903        -0.219151
 H        -0.309500         2.205378         0.282819
 H        -1.409957         1.498411        -0.913585
 H        -2.680848         2.039192         1.407855
