19
Iteration:  3113
 C        -4.055794        -0.305227         1.560634
 C        -2.489802        -0.143380         1.548660
 C        -1.591000        -1.250087         0.980557
 C        -0.128595        -0.946780         1.162682
 C         0.066044         0.107972         0.100740
 O         0.688732        -0.047581        -0.909041
 C        -0.608113         1.434117         0.486380
 C        -1.900058         1.202901         1.259537
 O        -1.806671         0.541074         2.556569
 H        -4.378577        -0.742622         2.603612
 H        -4.441078         0.596837         1.158885
 H        -4.395235        -1.064667         0.786803
 H        -1.794155        -2.247266         1.492860
 H        -1.812329        -1.375970        -0.130440
 H         0.111464        -0.543632         2.197322
 H         0.642896        -1.743199         1.073696
 H        -0.016250         2.099808         1.032051
 H        -0.817887         2.110534        -0.365477
 H        -2.588235         2.084477         1.370756
