19
Iteration:  4110charge 0 multiplicity 1
 C        -4.036199        -0.446692         1.728828
 C        -2.550750        -0.084300         1.502807
 C        -1.651482        -1.313476         1.021821
 C        -0.135358        -1.012983         1.057126
 C         0.146943         0.165832         0.032661
 O         0.758468         0.218024        -1.014434
 C        -0.618600         1.393760         0.387986
 C        -1.814542         1.214066         1.365397
 O        -1.867994         0.484727         2.639960
 H        -4.106081        -0.831049         2.762979
 H        -4.760245         0.376221         1.679984
 H        -4.518653        -1.130425         0.948315
 H        -1.922090        -2.271552         1.660328
 H        -1.850232        -1.582078        -0.033546
 H         0.112954        -0.802338         2.153298
 H         0.392529        -1.906424         0.712556
 H         0.088367         2.178028         0.723942
 H        -1.170280         1.901271        -0.409198
 H        -2.453173         2.105355         1.401227
