19
Iteration:  1785charge 0 multiplicity 1
 C        -3.840784        -0.493196         1.324689
 C        -2.381273        -0.017470         1.645767
 C        -1.403934        -1.184824         1.765277
 C        -0.642446        -1.299744         0.466934
 C         0.093228        -0.008425         0.125137
 O         0.852413        -0.060118        -0.821014
 C        -0.446593         1.360881         0.714542
 C        -1.907349         1.253516         1.079948
 O        -2.132911         1.037655         2.509494
 H        -4.305204        -0.852850         2.241176
 H        -4.363585         0.569961         1.076803
 H        -3.833113        -1.201143         0.515218
 H        -0.719704        -1.043991         2.633693
 H        -1.876043        -2.183725         1.918286
 H        -0.031146        -2.228500         0.248961
 H        -1.240047        -1.385119        -0.427692
 H         0.165110         1.516897         1.612270
 H        -0.299911         2.125280        -0.085157
 H        -2.528433         1.998396         0.561195
