19
Iteration:  3211
 C        -3.871521        -0.440604         1.337797
 C        -2.404228        -0.137082         1.541747
 C        -1.485280        -1.413654         1.491669
 C        -0.030509        -1.178656         0.937268
 C         0.013736         0.103322         0.044926
 O         0.357992         0.158152        -1.093969
 C        -0.330773         1.347235         0.821258
 C        -1.784967         1.174813         1.155420
 O        -2.228041         0.957659         2.539158
 H        -3.923585        -1.643918         1.476011
 H        -4.392723         0.241955         1.960693
 H        -4.148150        -0.053240         0.306882
 H        -1.637393        -2.084269         2.388512
 H        -1.920934        -1.935292         0.641715
 H         0.568258        -1.112969         1.875341
 H         0.462948        -2.045137         0.373709
 H         0.331581         1.348010         1.637023
 H        -0.111936         2.287821         0.268441
 H        -2.475948         1.968703         0.752197
