19
Iteration:  1323charge 0 multiplicity 1
 C        -3.710124        -0.174161         2.275840
 C        -2.353178        -0.135002         1.570700
 C        -1.914931        -1.450074         0.885611
 C        -0.657589        -1.350702         0.034383
 C        -0.058419         0.039541         0.309868
 O         1.075948         0.380421         0.580487
 C        -0.946271         1.153744        -0.180058
 C        -2.029628         1.218519         0.974417
 O        -1.326334         0.813754         2.181391
 H        -3.690704        -0.461166         3.389715
 H        -4.004331         0.799970         2.291641
 H        -4.497763        -0.848270         1.797371
 H        -1.737250        -2.197947         1.589868
 H        -2.638904        -1.772118         0.184938
 H         0.161936        -2.112182         0.226736
 H        -0.990311        -1.249058        -0.995140
 H        -0.316686         2.177527        -0.205120
 H        -1.424195         1.128581        -1.175946
 H        -2.649060         2.091657         1.065584
