19
Iteration:  4933charge 0 multiplicity 1
 C        -3.730897        -0.497273         1.425537
 C        -2.274656        -0.143387         1.572449
 C        -1.285199        -1.195654         1.787563
 C        -0.509059        -1.285313         0.477757
 C        -0.104348         0.022157        -0.017441
 O         0.643985         0.244256        -0.976870
 C        -0.458168         1.281737         0.847571
 C        -1.853168         1.207431         1.154123
 O        -2.240662         0.896420         2.449024
 H        -4.182904        -0.158422         2.394418
 H        -4.126167         0.106314         0.640243
 H        -3.711595        -1.603658         1.227011
 H        -0.766226        -0.896203         2.755588
 H        -1.607328        -2.129304         2.129693
 H         0.368298        -1.882706         0.497235
 H        -1.198073        -1.705877        -0.294883
 H        -0.018321         1.348754         1.791979
 H        -0.051645         2.345323         0.482322
 H        -2.456842         1.935375         0.612287
