19
Iteration:   741charge 0 multiplicity 1
 C        -3.656021        -0.299914         2.396061
 C        -2.416458        -0.047589         1.549626
 C        -1.976809        -1.402310         0.922191
 C        -0.695415        -1.301119         0.031176
 C         0.058823         0.103957         0.070740
 O         1.057566         0.321752         0.708195
 C        -0.885025         1.137627        -0.283585
 C        -1.924190         1.183741         0.874561
 O        -1.432840         0.877668         2.231242
 H        -3.271475        -0.579383         3.422949
 H        -4.263201         0.518434         2.505262
 H        -4.376693        -1.080779         2.012444
 H        -1.750654        -1.968650         1.874125
 H        -2.797265        -1.895900         0.424334
 H        -0.043324        -2.199055         0.354666
 H        -0.964645        -1.447899        -1.035155
 H        -0.523156         2.300082        -0.252111
 H        -1.369921         0.908409        -1.228181
 H        -2.530435         2.054245         0.966756
