19
Iteration:   552
 C        -3.876646        -0.386012         1.473924
 C        -2.445221        -0.117324         1.586056
 C        -1.444932        -1.224674         1.677021
 C        -0.661469        -1.280347         0.379696
 C         0.051803         0.017086        -0.073354
 O         1.057959         0.008307        -0.793813
 C        -0.454662         1.324950         0.673463
 C        -1.845286         1.239844         1.210596
 O        -2.213995         0.985466         2.550390
 H        -4.048739        -0.420615         2.525439
 H        -4.606750         0.495578         1.216236
 H        -4.054696        -1.276896         1.020025
 H        -0.827761        -1.143685         2.573586
 H        -1.931098        -2.243086         1.694781
 H         0.153252        -1.942802         0.610805
 H        -1.255508        -1.747225        -0.479258
 H         0.373863         1.487012         1.474959
 H        -0.430405         2.303976         0.057012
 H        -2.625071         1.988691         0.842585
