19
Iteration:  3100
 C        -4.023274        -0.401643         1.627308
 C        -2.519704        -0.101394         1.454520
 C        -1.699206        -1.353741         1.011512
 C        -0.113269        -1.008641         1.061419
 C         0.112777         0.125746         0.071639
 O         0.835612        -0.032498        -0.898936
 C        -0.637093         1.473521         0.491913
 C        -1.904617         1.307023         1.302941
 O        -1.851829         0.628621         2.569388
 H        -4.309413        -0.714346         2.742393
 H        -4.721615         0.465225         1.573135
 H        -4.397588        -1.178903         0.920743
 H        -1.997293        -2.258872         1.652279
 H        -2.010228        -1.618374         0.011967
 H         0.050053        -0.645891         2.140607
 H         0.427648        -1.886312         0.736650
 H         0.141018         1.833000         1.113461
 H        -0.803995         2.044782        -0.390328
 H        -2.564282         2.203732         1.284022
