19
Iteration:  4955charge 0 multiplicity 1
 C        -3.892855        -0.654905         1.440965
 C        -2.359569        -0.107478         1.666112
 C        -1.244958        -1.203364         1.716769
 C        -0.550899        -1.299917         0.396514
 C         0.054129         0.074433        -0.029498
 O         0.752182         0.243241        -1.035336
 C        -0.371615         1.204444         0.878322
 C        -1.932159         1.152698         1.122221
 O        -2.259813         1.131398         2.568942
 H        -4.293120        -0.506097         2.471320
 H        -4.486117        -0.095883         0.726531
 H        -3.918089        -1.765372         1.300373
 H        -0.559243        -0.999007         2.576578
 H        -1.702254        -2.057869         2.114729
 H         0.272904        -1.986045         0.419268
 H        -1.172365        -1.672915        -0.437231
 H         0.074038         1.312220         1.809189
 H         0.066847         2.195046         0.416733
 H        -2.464598         1.888388         0.532078
