19
Iteration:   721charge 0 multiplicity 1
 C        -3.690469        -0.183847         2.331381
 C        -2.402239        -0.076330         1.521640
 C        -1.771463        -1.381222         1.048647
 C        -0.651138        -1.337588         0.006720
 C        -0.071029         0.059646         0.256228
 O         1.073151         0.243873         0.614773
 C        -0.988773         1.229883        -0.183779
 C        -1.994597         1.278788         0.919364
 O        -1.425885         0.754042         2.090325
 H        -3.328067        -0.574994         3.323598
 H        -4.365497         0.656139         2.263619
 H        -4.350024        -0.979914         1.834082
 H        -1.449062        -1.976131         1.918363
 H        -2.543265        -1.888840         0.567632
 H         0.221804        -2.079071         0.168972
 H        -1.138065        -1.456751        -1.049302
 H        -0.251695         2.189565        -0.107377
 H        -1.431476         1.297326        -1.193037
 H        -2.724104         2.059531         0.993593
