19
Iteration:   886
 C        -3.946777        -0.258215         1.851835
 C        -2.530441        -0.110733         1.577749
 C        -1.846355        -1.280999         0.883358
 C        -0.312114        -1.194779         0.805173
 C         0.102484         0.052739         0.101688
 O         1.099173         0.164360        -0.584462
 C        -0.843589         1.316087         0.269168
 C        -1.896461         1.212712         1.282368
 O        -1.670499         0.656218         2.565448
 H        -4.150203        -1.153244         2.423275
 H        -4.480077         0.679840         2.185338
 H        -4.491394        -0.372838         0.923500
 H        -2.159373        -2.242885         1.352893
 H        -2.307363        -1.292999        -0.118455
 H         0.218095        -1.090417         1.768814
 H         0.055673        -2.146341         0.264352
 H        -0.207670         2.330789         0.398206
 H        -1.354094         1.485182        -0.671789
 H        -2.545833         2.107290         1.307552
