19
Iteration:   112
 C        -3.821758        -0.027403         2.233347
 C        -2.381665        -0.081453         1.611353
 C        -1.761691        -1.349912         1.064732
 C        -0.739394        -1.344942        -0.083666
 C        -0.011211         0.027166         0.078238
 O         1.062609         0.134797         0.765742
 C        -0.933273         1.189495        -0.319570
 C        -1.863572         1.131666         0.965037
 O        -1.390124         0.850802         2.243234
 H        -4.101994        -0.795685         3.047075
 H        -3.968984         0.885350         2.668439
 H        -4.426390         0.064117         1.346091
 H        -1.474925        -1.842328         2.001019
 H        -2.593702        -1.944670         0.680209
 H         0.004076        -2.258214         0.018184
 H        -1.177500        -1.307152        -1.008048
 H        -0.599318         2.267140        -0.508638
 H        -1.548916         0.976111        -1.146310
 H        -2.553031         1.930464         0.977877
