19
Iteration:   696
 C        -3.774303        -0.108696         2.186492
 C        -2.453033        -0.186156         1.517934
 C        -1.760202        -1.472783         1.169577
 C        -0.708033        -1.215534         0.056385
 C         0.015952         0.118589         0.123855
 O         1.192663         0.178905         0.461838
 C        -0.951032         1.309850        -0.122748
 C        -2.029474         1.141439         0.912218
 O        -1.462202         0.778072         2.257477
 H        -3.632296        -0.568485         3.185378
 H        -4.097632         0.901328         2.393160
 H        -4.549409        -0.613330         1.596839
 H        -1.161114        -1.747840         2.083756
 H        -2.434571        -2.335433         0.939024
 H         0.193531        -1.889278         0.145010
 H        -1.178619        -1.321814        -0.922691
 H        -0.318346         2.332136        -0.018819
 H        -1.473721         1.370302        -1.092366
 H        -2.950437         1.800319         0.858299
