19
Iteration:  1061charge 0 multiplicity 1
 C        -3.697182        -0.273323         1.022797
 C        -2.279204        -0.121672         1.473856
 C        -1.445570        -1.449386         1.216337
 C         0.036810        -1.159530         1.056885
 C        -0.021001         0.110868         0.208195
 O        -0.125520        -0.111217        -0.991601
 C        -0.336625         1.510772         0.864377
 C        -1.744073         1.309361         1.337087
 O        -2.065284         0.806422         2.636973
 H        -4.221071        -1.223055         1.257500
 H        -4.326972         0.471307         1.651165
 H        -3.734638        -0.013145        -0.045373
 H        -1.667813        -2.237407         2.077349
 H        -1.947911        -1.764073         0.224201
 H         0.494742        -1.024499         2.058928
 H         0.465850        -2.097222         0.540575
 H         0.522337         1.624383         1.578787
 H        -0.212685         2.239440         0.158711
 H        -2.374484         2.051386         0.795047
