19
Iteration:  4697charge 0 multiplicity 1
 C        -3.809676        -0.545262         1.457984
 C        -2.405864        -0.115816         1.609498
 C        -1.285877        -1.117457         1.677361
 C        -0.555785        -1.381615         0.424768
 C         0.008087        -0.015536        -0.014983
 O         0.918310         0.200355        -0.812980
 C        -0.562500         1.262394         0.601850
 C        -1.956050         1.232924         1.213359
 O        -2.181443         1.054250         2.549933
 H        -4.331260        -0.538500         0.515560
 H        -3.934954        -1.685275         1.706375
 H        -4.407254        -0.057239         2.284933
 H        -0.652789        -0.735819         2.451689
 H        -1.549248        -2.039401         2.254063
 H         0.293972        -2.135040         0.663569
 H        -1.264215        -1.800487        -0.295752
 H         0.212203         1.646162         1.375199
 H        -0.560663         1.885883        -0.255834
 H        -2.654563         1.845760         0.642191
