19
Iteration:  4445charge 0 multiplicity 1
 C        -3.860716        -0.459907         2.071875
 C        -2.427422        -0.134389         1.651401
 C        -1.625258        -1.404579         1.276389
 C        -0.615847        -1.256124         0.088591
 C         0.064210         0.154583         0.078834
 O         1.263403         0.274323        -0.091334
 C        -0.903236         1.411668         0.111554
 C        -2.079167         1.110709         1.057671
 O        -1.698501         0.874105         2.408467
 H        -3.993720        -0.956386         3.058460
 H        -4.425061         0.450648         2.187553
 H        -4.256284        -1.074637         1.236969
 H        -1.094075        -1.759704         2.196324
 H        -2.435861        -2.120589         0.957380
 H         0.092797        -2.092880         0.167907
 H        -1.165787        -1.472728        -0.886274
 H        -0.357806         2.244948         0.619797
 H        -1.061449         1.706207        -0.901910
 H        -2.811812         1.927208         1.045476
