19
Iteration:  4391
 C        -3.934047        -0.274348         2.188785
 C        -2.429180        -0.136708         1.664522
 C        -1.774088        -1.420843         1.097190
 C        -0.573450        -1.212639         0.132583
 C         0.101981         0.155428         0.137690
 O         1.293899         0.475279         0.066844
 C        -0.987693         1.195536         0.061723
 C        -2.126462         1.144398         1.052189
 O        -1.480333         0.672407         2.288763
 H        -3.902509        -0.170532         3.260189
 H        -4.549044         0.407978         1.702458
 H        -4.261614        -1.262604         1.868315
 H        -1.393940        -1.945388         2.006728
 H        -2.588427        -2.141068         0.754341
 H         0.007494        -2.141720         0.249173
 H        -0.833702        -1.370558        -0.947647
 H        -0.406642         2.193242         0.003104
 H        -1.361459         1.028267        -0.970715
 H        -2.883418         1.922317         1.164483
