19
Iteration:  1644charge 0 multiplicity 1
 C        -3.692670        -0.223184         0.866569
 C        -2.343604         0.016749         1.543049
 C        -1.331553        -1.238032         1.851036
 C        -0.168085        -1.265241         0.776174
 C        -0.041049        -0.035549         0.061058
 O         0.028777        -0.099437        -1.130429
 C        -0.151629         1.184997         1.036390
 C        -1.636499         1.280714         1.251854
 O        -2.381191         0.972752         2.527326
 H        -4.261007        -0.900037         1.413364
 H        -4.331179         0.771573         0.985321
 H        -3.670331        -0.505694        -0.135453
 H        -1.020428        -1.050413         2.864037
 H        -1.738845        -2.156113         1.724274
 H         0.798364        -1.306401         1.393688
 H         0.055276        -2.211736         0.266226
 H         0.218152         0.836871         2.091345
 H         0.254273         2.190055         0.587585
 H        -2.192491         1.994091         0.588852
