19
Iteration:  1402charge 0 multiplicity 1
 C        -3.793116        -0.349695         1.980849
 C        -2.366911        -0.101740         1.628771
 C        -1.614867        -1.320476         1.314117
 C        -0.762277        -1.221904         0.083541
 C         0.042974         0.046437         0.107523
 O         1.270029         0.040784         0.133569
 C        -0.807152         1.293602         0.073897
 C        -2.064821         1.148844         0.957777
 O        -1.737315         1.041963         2.371158
 H        -3.885829        -1.161091         2.751086
 H        -4.342721         0.530624         2.322102
 H        -4.438242        -0.628471         1.125502
 H        -1.088435        -1.749596         2.172355
 H        -2.314054        -2.108146         1.119836
 H        -0.198413        -2.198673        -0.084246
 H        -1.462585        -1.105069        -0.738355
 H        -0.139725         2.057042         0.588842
 H        -1.152808         1.683361        -0.909012
 H        -2.943686         1.703503         0.617976
