19
Iteration:   654
 C        -3.900061        -0.297787         2.059232
 C        -2.459847        -0.043450         1.573196
 C        -1.719473        -1.345335         1.257001
 C        -0.701666        -1.285242         0.076816
 C         0.137199         0.017072         0.123799
 O         1.370333         0.137323         0.037713
 C        -0.882420         1.230172         0.073755
 C        -2.039307         1.202009         1.071185
 O        -1.705002         0.957656         2.403768
 H        -3.796540        -1.264377         2.581275
 H        -4.372146         0.449036         2.567620
 H        -4.591283        -0.404242         1.174076
 H        -1.096978        -1.548440         2.132686
 H        -2.377467        -2.134867         1.129703
 H        -0.067409        -2.250861         0.156136
 H        -1.178548        -1.272894        -0.978285
 H        -0.305151         2.220540         0.272238
 H        -1.138566         1.325577        -0.968098
 H        -2.771370         1.919963         0.847947
