19
Iteration:   650
 C        -3.886421        -0.323198         2.007826
 C        -2.493419        -0.092986         1.563138
 C        -1.695815        -1.295663         1.247974
 C        -0.677547        -1.300164         0.107726
 C         0.123494         0.028386         0.119943
 O         1.350099         0.088738        -0.003309
 C        -0.880504         1.261578         0.123695
 C        -2.009103         1.199630         1.053451
 O        -1.720060         0.987786         2.422843
 H        -3.820039        -1.235947         2.600897
 H        -4.386027         0.462975         2.757797
 H        -4.478757        -0.450076         1.142187
 H        -1.046871        -1.542466         2.123879
 H        -2.497819        -2.156461         1.169865
 H        -0.010584        -2.125475         0.183311
 H        -1.136940        -1.290942        -0.859437
 H        -0.377753         2.251667         0.309856
 H        -1.153151         1.303844        -0.978545
 H        -2.778524         2.113520         0.947719
