19
Iteration:  3894charge 0 multiplicity 1
 C        -3.939908        -0.442444         1.562669
 C        -2.416455        -0.215655         1.554257
 C        -1.562274        -1.356637         1.141495
 C        -0.001736        -1.054171         1.018148
 C         0.107895         0.121939         0.045582
 O         0.451982         0.253661        -1.086048
 C        -0.535940         1.371922         0.716648
 C        -1.936882         1.153658         1.240748
 O        -1.939380         0.715965         2.584955
 H        -4.278148        -0.800272         2.527143
 H        -4.505306         0.446916         1.253867
 H        -4.018353        -1.220640         0.723972
 H        -1.725649        -2.293728         1.644389
 H        -1.851386        -1.587329         0.092066
 H         0.407378        -0.636408         1.987428
 H         0.422890        -2.023595         0.799775
 H         0.011044         1.773847         1.609292
 H        -0.436290         2.176606        -0.060315
 H        -2.679800         1.988208         0.852418
