19
Iteration:  3649charge 0 multiplicity 1
 C        -3.670291        -0.436305         2.318623
 C        -2.333909        -0.219443         1.543438
 C        -1.793161        -1.509183         1.051237
 C        -0.609099        -1.163553         0.033537
 C        -0.089366         0.253957         0.163343
 O         1.075269         0.425624         0.544614
 C        -0.991962         1.355480        -0.201577
 C        -2.042100         1.177558         0.921359
 O        -1.450218         0.679206         2.176966
 H        -3.478108        -0.356283         3.357183
 H        -4.405020         0.348055         2.002111
 H        -4.059908        -1.367518         2.136810
 H        -1.430822        -1.913581         1.997019
 H        -2.583094        -2.085350         0.674750
 H         0.276040        -1.806075         0.212524
 H        -0.975424        -1.206486        -1.026636
 H        -0.480799         2.329984        -0.300275
 H        -1.629770         1.193329        -0.985786
 H        -2.714409         1.972517         1.227814
