19
Iteration:  1914charge 0 multiplicity 1
 C        -3.934647        -0.323720         1.885827
 C        -2.462913        -0.039433         1.706531
 C        -1.684828        -1.331250         1.303698
 C        -0.629800        -1.232564         0.092173
 C         0.155484         0.033270         0.146095
 O         1.340076         0.093793        -0.069511
 C        -0.892568         1.234609         0.138885
 C        -2.006539         1.264655         1.051844
 O        -1.702088         0.895765         2.447303
 H        -4.113735        -0.743624         2.849754
 H        -4.692405         0.515690         1.747311
 H        -4.252171        -1.079591         1.253314
 H        -1.216755        -1.621768         2.298221
 H        -2.581329        -2.011846         1.069484
 H         0.094881        -2.041093         0.321686
 H        -1.236216        -1.240849        -0.866789
 H        -0.517341         2.221292         0.065628
 H        -1.293845         1.075990        -0.932354
 H        -2.760457         2.111797         1.046755
