19
Iteration:  3459
 C        -3.888423        -0.522858         1.629650
 C        -2.368835        -0.198073         1.660657
 C        -1.507022        -1.400756         1.549777
 C        -0.527738        -1.185742         0.345810
 C         0.028133         0.206319        -0.010171
 O         1.126827         0.186468        -0.553654
 C        -0.735625         1.468931         0.352583
 C        -1.965267         1.227165         1.153170
 O        -1.982897         0.854392         2.592063
 H        -3.889506        -1.474976         2.280577
 H        -4.483404         0.251676         2.092317
 H        -4.337352        -0.826739         0.620314
 H        -0.863590        -1.498859         2.469404
 H        -2.139978        -2.310552         1.375482
 H         0.342394        -1.822678         0.551037
 H        -1.159336        -1.656631        -0.408903
 H        -0.084446         2.153317         0.808597
 H        -1.067329         1.957672        -0.600045
 H        -2.895682         1.725526         0.804202
