19
Iteration:  3596
 C        -3.701597        -0.374046         2.353737
 C        -2.390458        -0.254783         1.583482
 C        -1.618231        -1.464039         1.058880
 C        -0.640373        -1.179201        -0.106333
 C        -0.006158         0.204999         0.033750
 O         1.107031         0.389422         0.540657
 C        -0.939302         1.322076        -0.194475
 C        -2.020870         1.124770         0.978102
 O        -1.636733         0.799841         2.284827
 H        -3.418482        -0.446594         3.396621
 H        -4.479055         0.501614         2.332955
 H        -4.177380        -1.229425         2.043221
 H        -1.319426        -2.038180         1.935275
 H        -2.303678        -2.115093         0.438057
 H         0.106409        -1.922818         0.179459
 H        -1.099196        -1.436350        -0.975179
 H        -0.458374         2.422512        -0.237283
 H        -1.591842         1.099761        -1.041445
 H        -2.820772         1.871133         1.038032
