19
Iteration:   365
 C        -3.890801        -0.208004         1.194693
 C        -2.399899        -0.062280         1.356839
 C        -1.528030        -1.361871         1.560975
 C        -0.055237        -1.266899         1.031204
 C         0.058739        -0.021256         0.120905
 O         0.187247         0.067613        -1.115006
 C        -0.159545         1.202407         0.889284
 C        -1.786827         1.246347         1.165099
 O        -2.129479         0.927704         2.517749
 H        -4.328152        -0.645932         2.125476
 H        -4.547533         0.805469         1.130952
 H        -4.217003        -0.701022         0.323685
 H        -1.659783        -1.557750         2.596825
 H        -1.920463        -2.163941         1.002426
 H         0.681621        -0.955045         1.804892
 H         0.319425        -2.190470         0.538690
 H         0.146831         1.286889         1.984935
 H         0.192012         2.065412         0.304396
 H        -2.341300         2.070010         0.674118
