19
Iteration:  4615charge 0 multiplicity 1
 C        -3.882171        -0.554589         1.780199
 C        -2.397578        -0.162913         1.609662
 C        -1.416309        -1.312896         1.669284
 C        -0.601316        -1.333180         0.294117
 C        -0.003443         0.043731        -0.018581
 O         1.081947         0.308027        -0.598198
 C        -0.581492         1.285632         0.458281
 C        -1.935366         1.201480         1.051732
 O        -2.109003         1.025156         2.465770
 H        -4.232743        -1.308765         0.997004
 H        -4.042589        -0.848797         2.799257
 H        -4.431984         0.329909         1.505151
 H        -0.761283        -1.088951         2.561192
 H        -1.971196        -2.239611         1.707740
 H         0.202279        -2.043857         0.285340
 H        -1.352216        -1.541294        -0.539417
 H         0.076951         1.640183         1.227158
 H        -0.518585         2.123414        -0.337858
 H        -2.585618         1.932147         0.554274
