19
Iteration:  1290
 C        -3.729076        -0.198984         2.264834
 C        -2.433581        -0.074510         1.569899
 C        -1.968082        -1.268816         0.853286
 C        -0.569591        -1.306061         0.259325
 C         0.020803         0.127914         0.096929
 O         1.150108         0.380597         0.556059
 C        -1.052428         1.172819        -0.321261
 C        -1.950657         1.242095         1.001371
 O        -1.375802         0.555117         2.269973
 H        -3.469722        -0.905946         3.135124
 H        -3.890298         0.727827         2.720473
 H        -4.555785        -0.567958         1.582206
 H        -2.131617        -2.044694         1.561238
 H        -2.711000        -1.474698         0.095459
 H         0.166377        -1.867637         0.896546
 H        -0.613805        -2.000060        -0.590321
 H        -0.584555         2.211340        -0.641062
 H        -1.762326         0.743007        -1.049737
 H        -2.477891         2.160306         1.185656
