19
Iteration:  3254
 C        -3.995056        -0.472899         1.320211
 C        -2.408766        -0.135145         1.493471
 C        -1.415677        -1.303405         1.658106
 C        -0.144849        -1.277740         0.788185
 C         0.037828         0.120656         0.067759
 O         0.464532         0.204413        -1.062147
 C        -0.362217         1.342918         0.847732
 C        -1.822735         1.199618         1.166345
 O        -2.133561         0.882131         2.477504
 H        -4.032457        -1.596379         1.380967
 H        -4.570071         0.007567         2.015259
 H        -4.280650        -0.133680         0.308706
 H        -1.211313        -1.110401         2.735860
 H        -1.965215        -2.176451         1.557521
 H         0.908065        -1.338912         1.120585
 H        -0.305329        -2.122315         0.063189
 H        -0.009215         1.347613         1.879958
 H        -0.102375         2.335895         0.416497
 H        -2.273345         2.001306         0.535807
