19
Iteration:  4917
 C        -3.804791        -0.544380         1.306152
 C        -2.363174        -0.144663         1.578769
 C        -1.274124        -1.240575         1.821532
 C        -0.473832        -1.304080         0.496703
 C        -0.005265         0.147338         0.032526
 O         0.596085         0.188767        -1.044588
 C        -0.373478         1.361452         0.812378
 C        -1.888721         1.161547         1.175288
 O        -2.190286         0.972579         2.597505
 H        -4.384664        -0.286024         2.227245
 H        -4.319000         0.184556         0.573098
 H        -4.022662        -1.582998         0.995472
 H        -0.558561        -0.994265         2.574930
 H        -1.764205        -2.267817         2.042764
 H         0.509299        -1.863550         0.690541
 H        -1.066342        -1.778355        -0.295874
 H         0.367520         1.258994         1.713805
 H        -0.250407         2.105310         0.129622
 H        -2.683708         1.696262         0.590776
