19
Iteration:  4790
 C        -3.798233        -0.575915         1.454872
 C        -2.350447        -0.058372         1.619583
 C        -1.298173        -1.172515         1.700570
 C        -0.421718        -1.298897         0.472235
 C        -0.055230         0.101727        -0.061659
 O         0.701840         0.137609        -1.010831
 C        -0.415751         1.185705         0.886329
 C        -1.899988         1.191686         1.132503
 O        -2.305721         1.080447         2.515800
 H        -3.771957        -1.714163         1.254954
 H        -4.352490        -0.494725         2.334413
 H        -4.309798        -0.034156         0.646100
 H        -0.649291        -0.922106         2.654071
 H        -1.598837        -2.130816         2.112814
 H         0.514487        -1.682460         0.743840
 H        -1.009491        -1.804805        -0.315285
 H         0.218420         0.907302         1.716707
 H         0.049073         2.232460         0.535979
 H        -2.440047         1.968747         0.545299
