19
Iteration:  2662
 C        -3.974671        -0.332061         1.533178
 C        -2.490215        -0.129791         1.674282
 C        -1.550212        -1.347214         1.591450
 C        -0.449407        -1.257338         0.444292
 C         0.114767         0.078189         0.098017
 O         1.081160         0.210840        -0.701727
 C        -0.684529         1.301142         0.454731
 C        -1.993635         1.137018         1.143649
 O        -1.921147         0.890485         2.565024
 H        -4.342491        -0.964157         2.349908
 H        -4.465055         0.736915         1.565561
 H        -4.065545        -0.814651         0.562678
 H        -0.987792        -1.413179         2.525891
 H        -2.024517        -2.277568         1.416427
 H         0.278740        -2.048963         0.552182
 H        -0.824029        -1.511210        -0.583753
 H        -0.072569         1.915178         1.036082
 H        -0.810744         1.841301        -0.516174
 H        -2.767305         1.802634         0.788007
