19
Iteration:  2924charge 0 multiplicity 1
 C        -3.743324        -0.179218         2.333598
 C        -2.490283        -0.133489         1.549266
 C        -1.738011        -1.431174         1.013058
 C        -0.529324        -1.260917         0.044358
 C         0.053019         0.128530         0.229813
 O         1.218528         0.373184         0.428125
 C        -0.956866         1.196875        -0.127521
 C        -2.163876         1.101741         0.892889
 O        -1.562825         0.732662         2.204184
 H        -3.602451        -0.636273         3.309156
 H        -4.220935         0.863060         2.516001
 H        -4.583967        -0.704747         1.949806
 H        -1.554815        -1.925340         2.044669
 H        -2.492949        -1.981866         0.457019
 H         0.304993        -1.975630         0.288645
 H        -0.801957        -1.450146        -0.997990
 H        -0.441666         2.075543         0.112708
 H        -1.373909         1.242336        -1.204125
 H        -2.738143         2.016441         0.979510
