19
Iteration:  3428
 C        -3.992206        -0.519278         1.623755
 C        -2.418851        -0.146048         1.681894
 C        -1.396619        -1.272280         1.554755
 C        -0.505141        -1.205739         0.298838
 C         0.165737         0.120023         0.023372
 O         1.087848         0.269453        -0.757480
 C        -0.647356         1.280373         0.598958
 C        -2.036189         1.183510         1.164825
 O        -2.090872         0.872816         2.533393
 H        -4.267625        -0.648146         2.723501
 H        -4.559968         0.299427         1.387011
 H        -4.095785        -1.465547         1.051604
 H        -0.774235        -1.280546         2.495908
 H        -1.728947        -2.283324         1.704662
 H         0.260938        -1.994444         0.361488
 H        -1.136156        -1.592441        -0.445135
 H        -0.001982         1.868135         1.314579
 H        -0.708967         1.951158        -0.315611
 H        -2.831425         1.873920         0.724867
