19
Iteration:  2059charge 0 multiplicity 1
 C        -3.685899        -0.149153         2.320529
 C        -2.369855        -0.084510         1.594345
 C        -2.088458        -1.305412         0.732156
 C        -0.559448        -1.332137         0.492239
 C         0.013679         0.159548         0.280406
 O         1.226498         0.382184         0.385572
 C        -1.102565         1.136143        -0.246034
 C        -2.040611         1.167603         0.896413
 O        -1.309510         0.623885         2.189188
 H        -3.703898        -0.459543         3.328312
 H        -4.186388         0.735935         2.299421
 H        -4.277726        -0.811314         1.732215
 H        -2.529296        -2.229196         1.134760
 H        -2.684201        -1.310875        -0.188931
 H        -0.082645        -1.775289         1.368141
 H        -0.339120        -1.891436        -0.443381
 H        -0.712719         2.116639        -0.430816
 H        -1.394869         0.766921        -1.230041
 H        -2.590686         1.942770         1.195368
