19
Iteration:  2737charge 0 multiplicity 1
 C        -4.047527        -0.397840         2.047823
 C        -2.476825        -0.073206         1.692907
 C        -1.730433        -1.389854         1.251446
 C        -0.425494        -1.289709         0.280443
 C         0.192074         0.055457         0.027258
 O         1.396792         0.266730        -0.348351
 C        -0.703619         1.231882         0.261101
 C        -2.079489         1.211481         1.062530
 O        -1.982168         0.980672         2.474702
 H        -3.967974        -0.934776         2.941615
 H        -4.696600         0.510645         2.160577
 H        -4.336842        -1.066331         1.242926
 H        -1.525789        -1.970993         2.189769
 H        -2.382724        -1.961502         0.650273
 H         0.280201        -2.039407         0.442364
 H        -0.737941        -1.640370        -0.754771
 H        -0.112593         2.040995         0.444832
 H        -0.936002         1.286093        -0.871738
 H        -2.806070         1.935477         0.841966
