19
Iteration:  2198charge 0 multiplicity 1
 C        -4.010256        -0.130818         1.797973
 C        -2.516469        -0.140727         1.512910
 C        -1.717826        -1.464973         1.276885
 C        -0.270948        -1.289780         0.584146
 C         0.097885         0.030750         0.015938
 O         1.181911         0.175968        -0.561046
 C        -0.738379         1.395169         0.336755
 C        -1.972205         1.190060         1.186458
 O        -1.920318         0.766043         2.502382
 H        -4.250057        -1.148790         2.141561
 H        -4.127264         0.511880         2.782077
 H        -4.512841         0.400126         0.970200
 H        -1.648008        -2.011062         2.197385
 H        -2.396233        -2.127153         0.730294
 H         0.448682        -1.264542         1.394145
 H        -0.076768        -2.126334        -0.089377
 H        -0.114008         2.116986         0.727445
 H        -1.087890         1.725241        -0.625730
 H        -2.734205         2.053692         0.953304
