19
Iteration:   234
 C        -4.000323        -0.104680         1.827542
 C        -2.518795        -0.010114         1.518577
 C        -1.900689        -1.293087         0.948987
 C        -0.323210        -1.290652         0.913824
 C         0.127614        -0.057493         0.141228
 O         1.070698         0.046421        -0.568817
 C        -0.714982         1.251617         0.234707
 C        -1.863367         1.256075         1.136928
 O        -1.737395         0.758350         2.519552
 H        -4.155636        -1.002739         2.531847
 H        -4.476308         0.865878         2.238699
 H        -4.471203        -0.324616         0.876095
 H        -2.194739        -2.093465         1.599034
 H        -2.346365        -1.517964        -0.001329
 H         0.075781        -1.132726         1.985789
 H         0.000238        -2.249029         0.567528
 H         0.017996         1.964746         0.669682
 H        -0.889020         1.664073        -0.737312
 H        -2.416486         2.204146         1.174215
