19
Iteration:  3409charge 0 multiplicity 1
 C        -3.946377        -0.556612         1.675701
 C        -2.503359        -0.236289         1.557658
 C        -1.408697        -1.233729         1.640497
 C        -0.516781        -1.311042         0.282585
 C         0.061463         0.131300        -0.067514
 O         1.023939         0.359746        -0.748636
 C        -0.470060         1.321430         0.625485
 C        -1.906366         1.100552         1.116344
 O        -2.167568         0.955681         2.572116
 H        -4.344965        -0.470854         2.673600
 H        -4.505902         0.110008         1.009653
 H        -4.036706        -1.572832         1.327557
 H        -0.705919        -0.963754         2.415407
 H        -1.766237        -2.226015         1.936284
 H         0.162514        -2.159536         0.350172
 H        -1.312037        -1.549366        -0.498960
 H         0.033921         1.396648         1.685478
 H        -0.248700         2.232547         0.053555
 H        -2.561802         1.863291         0.673071
