19
Iteration:   471charge 0 multiplicity 1
 C        -3.738545        -0.357719         1.075747
 C        -2.334007        -0.055257         1.645013
 C        -1.290627        -1.194634         1.925845
 C        -0.523179        -1.362577         0.572185
 C        -0.006856        -0.025759        -0.011321
 O         0.476491         0.063221        -1.119727
 C        -0.218008         1.167049         1.042370
 C        -1.762447         1.212109         1.201403
 O        -2.377592         1.117597         2.506342
 H        -4.297178        -1.293139         1.364898
 H        -4.238313         0.528937         1.170525
 H        -3.617564        -0.538668        -0.054138
 H        -0.584961        -0.855880         2.770314
 H        -1.757959        -2.195221         2.288766
 H         0.412334        -1.979657         0.659879
 H        -1.034291        -1.819284        -0.205453
 H         0.293699         0.950685         1.968994
 H         0.102365         2.115202         0.670817
 H        -2.269939         1.886703         0.531940
