19
Iteration:  1275charge 0 multiplicity 1
 C        -3.732469        -0.187639         2.329435
 C        -2.450483        -0.057126         1.497300
 C        -2.017293        -1.312464         0.759483
 C        -0.489751        -1.213950         0.430666
 C         0.013461         0.128181         0.121601
 O         1.187062         0.340465         0.388604
 C        -1.063826         1.140898        -0.264929
 C        -1.907339         1.199989         0.994807
 O        -1.466325         0.545978         2.318434
 H        -3.799898        -1.011355         2.962583
 H        -3.890223         0.762004         3.035957
 H        -4.578103        -0.249893         1.689023
 H        -2.052376        -2.244054         1.357834
 H        -2.583393        -1.403467        -0.207305
 H         0.094134        -1.495157         1.256782
 H        -0.215673        -1.730456        -0.566572
 H        -0.645292         2.137989        -0.530338
 H        -1.572509         0.785938        -1.241765
 H        -2.352984         2.171115         1.312535
