19
Iteration:  4174
 C        -3.984554        -0.398054         2.037715
 C        -2.520212        -0.183484         1.537087
 C        -1.810701        -1.447952         1.034103
 C        -0.323556        -1.241020         0.645539
 C         0.118658         0.183549         0.102896
 O         1.116468         0.436929        -0.619200
 C        -0.779056         1.356938         0.373806
 C        -2.061800         1.201080         1.111032
 O        -1.671123         0.675821         2.469076
 H        -4.164385        -1.477571         2.354837
 H        -4.063960         0.278369         2.872965
 H        -4.760159        -0.016952         1.310320
 H        -1.783815        -2.214117         1.782956
 H        -2.378939        -1.873259         0.161916
 H         0.327377        -1.412867         1.527562
 H         0.110992        -2.052305         0.086050
 H        -0.071286         2.224861         0.610794
 H        -1.092629         1.418652        -0.634539
 H        -2.761822         1.958552         0.997853
