19
Iteration:  1042
 C        -3.782294        -0.123460         0.942619
 C        -2.324639        -0.140478         1.498593
 C        -1.445627        -1.452324         1.345691
 C         0.107521        -1.128045         1.102851
 C         0.067395         0.097173         0.171413
 O        -0.202625        -0.048401        -1.026083
 C        -0.296021         1.436557         0.844259
 C        -1.765047         1.204365         1.304516
 O        -2.027097         0.702833         2.633975
 H        -4.293281        -1.080974         1.191566
 H        -4.353444         0.638491         1.363298
 H        -3.676999         0.159661        -0.106277
 H        -1.584864        -1.950086         2.312049
 H        -1.722021        -1.997249         0.473292
 H         0.692968        -0.863242         2.009976
 H         0.603126        -1.864518         0.511546
 H         0.191762         1.790382         1.758753
 H        -0.352204         2.237740        -0.034033
 H        -2.463523         2.000925         1.049324
