19
Iteration:  1590
 C        -3.646906        -0.437980         0.911656
 C        -2.381114        -0.056021         1.642655
 C        -1.473865        -1.273742         1.825398
 C        -0.405909        -1.328705         0.737109
 C        -0.107469         0.050526         0.119860
 O         0.241122        -0.000239        -1.050148
 C        -0.170654         1.289834         0.934129
 C        -1.689974         1.246642         1.195308
 O        -2.148791         1.078675         2.543676
 H        -4.357550        -0.929968         1.461498
 H        -4.012866         0.558468         0.420197
 H        -3.329884        -0.946087         0.071448
 H        -1.064884        -1.159472         2.845739
 H        -2.024956        -2.186680         1.932843
 H         0.466084        -1.819179         1.196424
 H        -0.788633        -1.928009        -0.128768
 H         0.442631         1.429557         1.904857
 H         0.131058         2.208061         0.238264
 H        -2.322068         1.919029         0.541359
