19
Iteration:  2910
 O        -3.959487         0.268067        -1.480959
 C        -2.567751         0.072943        -1.350732
 C        -2.074314        -0.930766        -2.397548
 C        -2.011116        -1.332720        -0.962576
 C        -0.892927        -1.365815         0.015960
 C        -0.033191        -0.072517        -0.027917
 O         1.214654         0.068035        -0.126077
 C        -0.874850         1.171638         0.009882
 C        -1.772541         1.330297        -1.175709
 H        -4.268803         0.404170        -0.581275
 H        -2.898984        -1.380692        -3.174114
 H        -1.127281        -0.765045        -2.890754
 H        -2.651234        -2.158407        -0.610430
 H        -1.499632        -1.474912         0.933070
 H        -0.366481        -2.302894        -0.157891
 H        -1.363980         1.237269         0.997403
 H        -0.055075         2.013422         0.006386
 H        -2.452991         2.196945        -0.987015
 H        -1.235318         1.656952        -1.971010
