19
Iteration:  3809
 O        -3.807225         0.311715        -0.770086
 C        -2.644502         0.044631        -1.427932
 C        -2.539510        -1.152553        -2.370288
 C        -1.850498        -1.336107        -1.044720
 C        -0.316191        -1.175200        -0.978155
 C        -0.049426        -0.012155        -0.053807
 O         0.497727        -0.018852         1.083128
 C        -0.626419         1.303448        -0.490419
 C        -1.690144         1.252120        -1.653358
 H        -3.432796         0.519761         0.168538
 H        -3.286592        -1.868299        -2.492200
 H        -2.163198        -0.884148        -3.398927
 H        -2.181794        -2.252030        -0.519690
 H         0.159755        -2.147377        -0.565068
 H         0.090140        -0.997997        -1.987087
 H        -1.018898         1.794928         0.446976
 H         0.243346         1.949789        -0.824379
 H        -2.221746         2.155511        -1.644586
 H        -1.222070         1.233812        -2.715583
