19
Iteration:   923charge 0 multiplicity 1
 O        -3.826975         0.325376        -0.859863
 C        -2.623219         0.049548        -1.491677
 C        -2.646602        -1.108645        -2.450773
 C        -1.930774        -1.242489        -1.092383
 C        -0.449991        -1.266300        -0.717465
 C        -0.021202        -0.011293         0.101116
 O         0.771053        -0.032069         0.995089
 C        -0.647314         1.335590        -0.462847
 C        -1.579577         1.187020        -1.736875
 H        -3.836568         0.152047         0.043211
 H        -3.602151        -1.753264        -2.601975
 H        -2.043669        -1.079063        -3.346672
 H        -2.467653        -1.947288        -0.440504
 H        -0.283570        -2.050400         0.022992
 H         0.132922        -1.342242        -1.656490
 H        -1.462025         1.566301         0.240597
 H        -0.126126         2.311220        -0.525758
 H        -2.077082         2.222442        -1.672578
 H        -1.124459         1.187789        -2.771528
