19
Iteration:  2257charge 0 multiplicity 1
 O        -3.911993         0.352277        -1.589953
 C        -2.578788         0.096222        -1.431510
 C        -2.120416        -1.060940        -2.239095
 C        -2.172910        -1.277214        -0.783106
 C        -0.803827        -1.372132        -0.032603
 C         0.010229        -0.022305        -0.094893
 O         1.216819         0.047214        -0.152539
 C        -0.853637         1.171120         0.094866
 C        -1.787112         1.347540        -1.140820
 H        -4.185455        -0.398891        -2.278077
 H        -2.887586        -1.496817        -2.844511
 H        -1.070069        -0.960276        -2.662665
 H        -3.063114        -1.866410        -0.478841
 H        -0.867215        -1.447979         1.045609
 H        -0.141295        -2.080410        -0.564408
 H        -1.495542         0.886690         0.858822
 H        -0.299130         2.065710         0.346303
 H        -2.559919         1.999346        -0.757835
 H        -1.188179         1.609631        -2.065704
