19
Iteration:  3013
 O        -4.070382         0.246469        -1.613510
 C        -2.645405         0.052610        -1.418203
 C        -1.982540        -0.870042        -2.330081
 C        -2.067119        -1.386194        -0.889961
 C        -0.827262        -1.278088         0.013507
 C         0.043737        -0.028469        -0.091830
 O         1.296735        -0.156034        -0.054155
 C        -0.725624         1.321293        -0.068423
 C        -2.014106         1.312240        -1.041342
 H        -4.337367         0.873270        -0.865940
 H        -2.503251        -1.506527        -3.043930
 H        -1.032615        -0.599274        -2.692393
 H        -2.825109        -2.140406        -0.582425
 H        -1.059407        -1.533212         1.081800
 H        -0.075119        -2.061369        -0.279132
 H        -1.065903         1.503370         1.019240
 H        -0.073216         2.079256        -0.430809
 H        -2.824887         1.788238        -0.499219
 H        -1.765289         1.940546        -1.922888
