19
Iteration:   932charge 0 multiplicity 1
 O        -3.959722         0.347126        -0.882940
 C        -2.573195         0.002120        -1.483807
 C        -2.664689        -1.109366        -2.481306
 C        -1.933128        -1.231733        -1.053456
 C        -0.421439        -1.191576        -0.640292
 C        -0.020913         0.036047         0.047661
 O         0.823683        -0.079256         0.964696
 C        -0.693029         1.312603        -0.434223
 C        -1.542324         1.182045        -1.731092
 H        -3.715256         0.216379        -0.010391
 H        -3.587556        -1.686584        -2.674004
 H        -2.134306        -1.118971        -3.397095
 H        -2.521834        -1.931556        -0.496568
 H        -0.150445        -2.142132        -0.220091
 H         0.328999        -1.104735        -1.490085
 H        -1.485523         1.612711         0.287247
 H         0.072971         2.157196        -0.284809
 H        -2.042119         2.217775        -1.873099
 H        -0.978929         0.775481        -2.587485
