19
Iteration:  3720
 O        -3.862908         0.379908        -0.871022
 C        -2.587901        -0.067392        -1.402361
 C        -2.567385        -1.160418        -2.449907
 C        -1.832797        -1.312836        -1.089417
 C        -0.330920        -1.241787        -0.799806
 C        -0.039348         0.001444         0.007634
 O         0.710445        -0.052703         0.931689
 C        -0.719780         1.332566        -0.431286
 C        -1.733124         1.281632        -1.602917
 H        -3.777221         0.891504        -0.001879
 H        -3.504727        -1.802336        -2.407757
 H        -2.088422        -1.023648        -3.374930
 H        -2.356422        -1.933583        -0.328248
 H         0.006732        -2.182318        -0.311192
 H         0.236479        -1.006864        -1.719308
 H        -1.368918         1.685762         0.435446
 H        -0.065860         2.214061        -0.502453
 H        -2.268156         2.150968        -1.713296
 H        -1.213172         1.049347        -2.588753
