19
Iteration:  3596charge 0 multiplicity 1
 O        -4.011280         0.252164        -1.135816
 C        -2.594549         0.054896        -1.541738
 C        -2.415428        -1.043053        -2.444199
 C        -2.032527        -1.237493        -0.969052
 C        -0.600487        -1.316156        -0.568926
 C        -0.023795         0.028388         0.121000
 O         1.155274         0.036405         0.606464
 C        -0.796978         1.309788        -0.175166
 C        -1.670200         1.182770        -1.478072
 H        -4.014278         0.083232        -0.155016
 H        -3.351981        -1.655702        -2.733157
 H        -1.801406        -1.094579        -3.348083
 H        -2.695251        -1.642389        -0.172030
 H        -0.242875        -2.236009        -0.136103
 H        -0.079565        -1.347842        -1.578422
 H        -1.499509         1.420280         0.741474
 H        -0.100421         2.196216        -0.197179
 H        -2.343643         2.072917        -1.656691
 H        -1.131129         1.121130        -2.394703
