19
Iteration:  4703charge 0 multiplicity 1
 O        -3.988042         0.076774        -1.040892
 C        -2.638969         0.098848        -1.336345
 C        -2.145601        -0.719387        -2.481657
 C        -2.044579        -1.293195        -1.126637
 C        -0.597460        -1.447066        -0.551961
 C         0.038424        -0.071332        -0.163961
 O         0.744407         0.058400         0.905438
 C        -0.398350         1.202288        -0.950485
 C        -1.888835         1.335937        -0.825868
 H        -4.436855         0.770794        -1.459604
 H        -2.936390        -1.303272        -3.125142
 H        -1.242517        -0.430213        -3.011687
 H        -2.785105        -2.109324        -0.903295
 H        -0.559558        -2.148488         0.233537
 H        -0.024886        -1.843259        -1.373299
 H        -0.019346         2.169372        -0.564756
 H        -0.105618         1.071630        -2.020277
 H        -2.198034         1.328938         0.228720
 H        -2.263385         2.333165        -1.349448
