19
Iteration:  2954
 O        -4.066887         0.162935        -1.604781
 C        -2.639011         0.086531        -1.394621
 C        -1.975511        -0.946907        -2.311895
 C        -2.082229        -1.157331        -0.859662
 C        -0.744346        -1.221232        -0.111947
 C         0.016963        -0.066403        -0.037720
 O         1.269398        -0.199309        -0.083761
 C        -0.764303         1.210479         0.049630
 C        -1.963191         1.422921        -1.131158
 H        -4.655553         0.154854        -0.816719
 H        -2.668958        -1.633206        -2.929780
 H        -0.937872        -0.831799        -2.715886
 H        -2.922628        -1.695544        -0.452393
 H        -0.977268        -1.439414         0.944231
 H        -0.093083        -1.973766        -0.537746
 H        -1.247936         1.267382         1.017595
 H        -0.097261         2.146489         0.113133
 H        -2.745298         2.165312        -0.807987
 H        -1.632533         1.757143        -2.043857
