19
Iteration:   103
 O        -4.016770         0.125504        -1.635940
 C        -2.604782         0.111175        -1.426754
 C        -2.058062        -1.031610        -2.287447
 C        -2.186609        -1.243781        -0.759988
 C        -0.835517        -1.292521         0.020893
 C        -0.014482        -0.028194        -0.086092
 O         1.220525        -0.114544        -0.029924
 C        -0.646575         1.326133        -0.133947
 C        -1.878584         1.413488        -1.132781
 H        -4.505995         0.226657        -0.680529
 H        -2.883121        -1.418483        -3.008856
 H        -1.015686        -0.812300        -2.666721
 H        -3.039312        -1.866843        -0.374842
 H        -1.000434        -1.492292         1.078240
 H        -0.099252        -2.094716        -0.266288
 H        -0.833140         1.585303         0.907965
 H         0.120189         1.968827        -0.580744
 H        -2.565231         2.211314        -0.829385
 H        -1.306506         1.732876        -2.064038
