19
Iteration:  1131
 O        -4.035410         0.356316        -1.400544
 C        -2.647855         0.093580        -1.461635
 C        -2.266325        -1.052858        -2.366468
 C        -2.022960        -1.305828        -0.950904
 C        -0.744948        -1.356681        -0.272795
 C        -0.048931         0.035844         0.046097
 O         1.189878        -0.011763         0.231379
 C        -0.787862         1.268790        -0.053497
 C        -1.651849         1.223575        -1.301323
 H        -4.245284         0.488781        -0.471402
 H        -3.083294        -1.682645        -2.665373
 H        -1.446117        -0.756406        -3.042537
 H        -2.737063        -2.039647        -0.596642
 H        -0.911770        -1.981939         0.616035
 H         0.145767        -1.860192        -0.743271
 H        -1.520896         1.363506         0.829683
 H        -0.038132         2.085388         0.013288
 H        -2.218461         2.140767        -1.554961
 H        -0.932950         1.137495        -2.147909
