19
Iteration:  2344
 O        -3.978108         0.384397        -1.357681
 C        -2.569428         0.020206        -1.487625
 C        -1.905927        -1.032323        -2.423668
 C        -2.085313        -1.270331        -0.879023
 C        -0.868609        -1.290920         0.082085
 C        -0.058934        -0.002018         0.054125
 O         1.130922        -0.050214        -0.255599
 C        -0.899151         1.215284         0.084099
 C        -1.708358         1.317403        -1.224546
 H        -4.528585        -0.434961        -1.373085
 H        -2.601310        -1.604466        -3.050218
 H        -0.971917        -0.676419        -3.008515
 H        -2.787614        -2.138836        -0.715874
 H        -1.179715        -1.511605         1.133255
 H        -0.166444        -2.132262        -0.111422
 H        -1.785485         1.037217         0.752252
 H        -0.403739         2.189893         0.346672
 H        -2.373934         2.195521        -1.253143
 H        -1.057012         1.529348        -2.177611
