19
Iteration:  2868
 O        -3.976528         0.217217        -1.418425
 C        -2.575940         0.098220        -1.464724
 C        -2.041154        -1.030399        -2.333159
 C        -2.148183        -1.244346        -0.911337
 C        -0.834238        -1.318219        -0.171837
 C         0.005929        -0.007857         0.074156
 O         1.207684        -0.023263        -0.160935
 C        -0.969370         1.234016         0.125436
 C        -1.665263         1.312700        -1.201685
 H        -4.219940         0.634112        -0.621791
 H        -2.790467        -1.502512        -3.090898
 H        -1.136568        -0.866365        -2.814665
 H        -2.979535        -1.854543        -0.608808
 H        -0.972610        -1.722908         0.884657
 H        -0.074451        -2.014472        -0.535081
 H        -1.819973         1.019608         0.834513
 H        -0.453259         2.251131         0.278450
 H        -2.200861         2.309916        -1.324827
 H        -0.872766         1.390887        -1.941924
