19
Iteration:  3278
 O        -3.974117         0.257174        -1.585340
 C        -2.623591         0.081938        -1.295951
 C        -1.861301        -0.921472        -2.245762
 C        -2.163552        -1.341292        -0.870618
 C        -0.894029        -1.399669         0.037189
 C         0.020806        -0.047281        -0.167060
 O         1.236394         0.044594        -0.239657
 C        -0.892427         1.171144         0.078027
 C        -1.858238         1.364793        -1.146602
 H        -4.228357         0.749438        -0.846967
 H        -2.471034        -1.517945        -3.014231
 H        -0.955100        -0.657304        -2.677026
 H        -2.925006        -2.095359        -0.738691
 H        -1.048579        -1.365546         1.128163
 H        -0.387827        -2.369587        -0.162839
 H        -1.374546         1.064643         1.019961
 H        -0.140822         2.010324         0.094589
 H        -2.647325         2.108881        -1.019456
 H        -1.310182         1.625981        -2.070386
