19
Iteration:   126
 O        -4.034673         0.228455        -1.717349
 C        -2.588710         0.028762        -1.399062
 C        -2.151562        -1.175753        -2.323175
 C        -2.124023        -1.238349        -0.776093
 C        -0.856503        -1.183787        -0.038955
 C         0.096107         0.030783        -0.055684
 O         1.333553        -0.179034        -0.030426
 C        -0.687205         1.389070        -0.070350
 C        -1.910195         1.344059        -1.055676
 H        -4.376154         0.831635        -1.176836
 H        -3.169928        -1.539241        -2.722238
 H        -1.229988        -1.236454        -2.927752
 H        -2.818261        -1.931274        -0.285529
 H        -1.178632        -1.330629         0.989006
 H        -0.272774        -2.117565        -0.202985
 H        -1.176522         1.483942         0.903640
 H        -0.041542         2.263561        -0.315760
 H        -2.680185         1.845100        -0.421782
 H        -1.724485         1.874610        -2.062898
