19
Iteration:   297
 O        -3.928357         0.119044        -1.711043
 C        -2.584346         0.153674        -1.473365
 C        -2.105605        -1.114812        -2.168112
 C        -2.233584        -1.090936        -0.720873
 C        -0.864404        -1.283914         0.058244
 C         0.043770        -0.090664        -0.135010
 O         1.268250        -0.078001        -0.189709
 C        -0.795226         1.162163        -0.016102
 C        -1.811524         1.509762        -1.100344
 H        -4.287619         0.174382        -0.902607
 H        -2.678368        -1.624075        -2.914169
 H        -1.039701        -1.052078        -2.608669
 H        -3.044412        -1.657020        -0.235620
 H        -1.070697        -1.372832         1.129818
 H        -0.194881        -2.121671        -0.238759
 H        -1.323404         0.958949         0.970232
 H        -0.175310         2.067777         0.007034
 H        -2.557945         2.372685        -0.972281
 H        -1.412024         1.928951        -1.977332
