19
Iteration:  4524charge 0 multiplicity 1
 O        -4.116411         0.034455        -1.553701
 C        -2.702631         0.114341        -1.323177
 C        -1.953498        -0.659867        -2.436177
 C        -1.993280        -1.279565        -1.008821
 C        -0.807718        -1.313458        -0.072528
 C         0.023860        -0.075319        -0.134701
 O         1.189963        -0.126348         0.301127
 C        -0.546889         1.211522        -0.711735
 C        -2.086259         1.364514        -0.602747
 H        -4.464367         0.427898        -0.749280
 H        -2.543906        -1.102655        -3.236722
 H        -1.021506        -0.230144        -2.564942
 H        -2.654154        -2.170386        -0.937175
 H        -1.091899        -1.292676         0.954370
 H        -0.194258        -2.169168        -0.196165
 H        -0.017491         1.954727        -0.017805
 H        -0.043139         1.354304        -1.679829
 H        -2.416502         1.399956         0.396417
 H        -2.499572         2.220387        -1.249707
