19
Iteration:  3149
 O        -3.939953         0.028968        -1.764736
 C        -2.584590         0.119154        -1.288162
 C        -1.801966        -0.865738        -2.247778
 C        -2.166726        -1.167434        -0.778376
 C        -0.932420        -1.345140         0.077456
 C        -0.042311        -0.053268        -0.181990
 O         1.201057        -0.186746        -0.340866
 C        -0.711414         1.265611         0.044916
 C        -2.013228         1.435895        -0.916924
 H        -4.596856         0.656633        -1.267627
 H        -2.525626        -1.340291        -2.944041
 H        -0.738532        -0.566614        -2.486562
 H        -2.994241        -1.823433        -0.630163
 H        -1.127213        -1.294780         1.197735
 H        -0.160132        -2.112244        -0.152960
 H        -0.938175         1.342889         1.185708
 H        -0.043882         2.164172        -0.200826
 H        -2.739861         2.071745        -0.387873
 H        -1.840122         2.019319        -1.958337
