19
Iteration:  4238
 O        -4.008386         0.166897        -1.498595
 C        -2.557446        -0.002233        -1.468141
 C        -2.020649        -0.965676        -2.395091
 C        -2.096502        -1.275091        -0.885231
 C        -0.806627        -1.353704        -0.019617
 C        -0.056189        -0.031044        -0.034730
 O         1.183536         0.047530        -0.219163
 C        -0.815975         1.278355         0.116009
 C        -1.790064         1.339561        -1.085854
 H        -4.287842         0.437986        -0.614456
 H        -2.895759        -1.296605        -3.078676
 H        -1.111903        -0.701171        -2.909874
 H        -2.943856        -1.908796        -0.597314
 H        -1.110099        -1.506229         1.080501
 H        -0.214261        -2.304629        -0.142569
 H        -1.269857         1.316905         1.126201
 H        -0.064877         2.122598         0.075660
 H        -2.524284         2.106838        -0.913198
 H        -1.218765         1.695837        -2.086459
