19
Iteration:  1332charge 0 multiplicity 1
 O        -3.888125         0.351179        -1.797005
 C        -2.571304         0.021327        -1.400221
 C        -1.870328        -0.972452        -2.251575
 C        -2.065821        -1.278307        -0.801385
 C        -0.868191        -1.365092         0.219886
 C        -0.059667        -0.062629        -0.067309
 O         1.116904        -0.122772        -0.396946
 C        -0.772283         1.289182         0.055587
 C        -1.993541         1.349444        -0.929222
 H        -4.353446         0.820487        -0.940491
 H        -2.601587        -1.479831        -2.983803
 H        -0.889991        -0.802390        -2.687839
 H        -2.862720        -2.066789        -0.649282
 H        -1.307209        -1.308065         1.247221
 H        -0.223457        -2.225078        -0.090691
 H        -1.192688         1.250210         1.118957
 H         0.121816         1.953014        -0.036514
 H        -2.862245         1.963848        -0.670988
 H        -1.633924         1.739009        -1.938759
