19
Iteration:  2735
 O        -4.009806         0.329105        -1.242412
 C        -2.621193        -0.000403        -1.415783
 C        -2.111469        -1.085662        -2.528861
 C        -2.072757        -1.287445        -1.014100
 C        -0.826086        -1.296220        -0.273454
 C         0.054877         0.014211        -0.065734
 O         1.245648        -0.065163         0.318177
 C        -0.804571         1.296708        -0.121589
 C        -1.816580         1.310641        -1.291940
 H        -4.304034         0.125546        -0.334796
 H        -2.853740        -1.629101        -2.989951
 H        -1.269790        -0.641529        -3.159299
 H        -2.842670        -2.060315        -0.725000
 H        -1.075782        -1.367714         0.849332
 H        -0.142126        -2.130968        -0.473929
 H        -1.523946         1.427836         0.745002
 H        -0.147763         2.217400        -0.101251
 H        -2.495060         2.185991        -0.983589
 H        -1.302635         1.506437        -2.295692
