19
Iteration:   609
 O        -3.883748         0.375710        -1.100129
 C        -2.555997         0.063165        -1.449352
 C        -2.509145        -1.116760        -2.403580
 C        -2.015332        -1.283778        -0.909337
 C        -0.534862        -1.314006        -0.593209
 C        -0.048692        -0.075863        -0.014672
 O         0.951694         0.045744         0.660767
 C        -0.850002         1.221996        -0.253189
 C        -1.574242         1.256714        -1.571442
 H        -4.049830         1.140680        -0.477151
 H        -3.478613        -1.686884        -2.722792
 H        -1.717240        -1.012570        -3.150288
 H        -2.644594        -1.720267        -0.119680
 H        -0.322193        -2.123184         0.132096
 H         0.088169        -1.439017        -1.509302
 H        -1.497372         1.223912         0.688043
 H        -0.094307         1.981611        -0.004496
 H        -2.124818         2.090007        -1.931639
 H        -0.756566         1.066569        -2.311254
