19
Iteration:  3451charge 0 multiplicity 1
 O        -3.998719         0.389882        -1.224672
 C        -2.668668         0.037410        -1.480688
 C        -2.194767        -1.081509        -2.409571
 C        -1.956305        -1.179407        -0.966641
 C        -0.643912        -1.370053        -0.308283
 C        -0.012315        -0.050773         0.073766
 O         1.170586         0.041189         0.266512
 C        -0.893345         1.168187        -0.097003
 C        -1.829868         1.232809        -1.410502
 H        -4.315490         0.027306        -0.296933
 H        -2.836964        -1.386286        -3.151524
 H        -1.412996        -0.607224        -3.012802
 H        -2.696940        -1.829460        -0.521517
 H        -0.648612        -2.123178         0.486580
 H         0.081094        -1.770940        -1.030285
 H        -1.569603         1.250337         0.857813
 H        -0.202726         2.092124        -0.112886
 H        -2.222604         2.312449        -1.345481
 H        -1.100507         1.341185        -2.144657
