19
Iteration:   344charge 0 multiplicity 1
 O        -4.001230         0.388100        -1.579619
 C        -2.673460        -0.036895        -1.413775
 C        -2.062184        -1.074119        -2.292430
 C        -2.155250        -1.372669        -0.711146
 C        -0.837887        -1.294351         0.003624
 C        -0.023014         0.013819        -0.021791
 O         1.195059        -0.035349        -0.182007
 C        -0.767503         1.324563         0.031252
 C        -1.776035         1.215507        -1.174488
 H        -4.017215         1.275709        -1.538775
 H        -2.259149        -1.741559        -3.159670
 H        -1.079179        -0.758242        -2.586841
 H        -2.935806        -1.997194        -0.332488
 H        -0.915922        -1.530454         1.071395
 H        -0.048592        -1.994290        -0.377587
 H        -1.235465         1.550435         0.949988
 H         0.062612         2.007932        -0.255850
 H        -2.497212         2.054315        -1.356334
 H        -1.202252         1.454155        -2.088246
