19
Iteration:  2665charge 0 multiplicity 1
 O        -4.005746         0.435580        -1.253304
 C        -2.641019         0.044145        -1.479808
 C        -2.112153        -1.007043        -2.423174
 C        -2.103756        -1.307834        -0.864984
 C        -0.667138        -1.320220        -0.301027
 C         0.001038        -0.000270        -0.061292
 O         1.187254        -0.001771         0.281728
 C        -0.887497         1.174270        -0.111075
 C        -1.728724         1.261397        -1.365518
 H        -4.584608        -0.388676        -1.109368
 H        -2.934661        -1.737173        -2.955795
 H        -1.163686        -0.816635        -2.970261
 H        -2.963818        -1.833059        -0.412674
 H        -0.664621        -1.612837         0.753682
 H        -0.093973        -2.113433        -0.857763
 H        -1.557327         1.193283         0.844091
 H        -0.262238         2.047923        -0.002461
 H        -2.434571         1.966019        -1.094163
 H        -1.133049         1.511424        -2.159230
