19
Iteration:   894charge 0 multiplicity 1
 O        -3.722605         0.409101        -0.793642
 C        -2.570341         0.025044        -1.439943
 C        -2.531998        -1.143349        -2.520795
 C        -1.921654        -1.303544        -1.003202
 C        -0.405214        -1.336308        -0.766682
 C        -0.169519        -0.061214        -0.061647
 O         0.565501         0.034079         0.941453
 C        -0.653299         1.328216        -0.469932
 C        -1.625951         1.235089        -1.603753
 H        -3.668700         0.372599         0.129870
 H        -3.546235        -1.607777        -2.709963
 H        -1.635228        -1.164936        -3.150770
 H        -2.482120        -2.011805        -0.336976
 H         0.044953        -2.160285        -0.125000
 H         0.042594        -1.370659        -1.757254
 H        -1.035311         1.859638         0.424012
 H         0.066453         1.939549        -0.960953
 H        -2.172486         2.142924        -1.667211
 H        -1.144868         1.266547        -2.574888
