19
Iteration:  2053charge 0 multiplicity 1
 O        -3.998830         0.311055        -1.380455
 C        -2.620573         0.024289        -1.369781
 C        -2.101055        -1.015003        -2.446402
 C        -2.109849        -1.309910        -0.826534
 C        -0.822444        -1.329907        -0.149718
 C         0.016086        -0.006410        -0.083095
 O         1.211847         0.023250         0.076186
 C        -0.851392         1.257096         0.002958
 C        -1.701532         1.266729        -1.249741
 H        -4.194426         1.021333        -2.049871
 H        -2.948222        -1.554880        -3.001622
 H        -1.203817        -0.756137        -2.938557
 H        -2.838648        -2.116827        -0.659011
 H        -0.930143        -1.474443         0.952657
 H        -0.255473        -2.258495        -0.309250
 H        -1.428493         1.142585         0.870224
 H        -0.254024         2.175183         0.094750
 H        -2.559281         2.063459        -1.368759
 H        -1.066350         1.048817        -2.047664
