19
Iteration:  2305charge 0 multiplicity 1
 O        -3.911760         0.412596        -1.571304
 C        -2.545849        -0.025295        -1.432960
 C        -2.005865        -1.034014        -2.355334
 C        -2.136605        -1.310891        -0.738514
 C        -0.863725        -1.340189         0.020588
 C        -0.046281        -0.047459         0.016500
 O         1.137711         0.091190        -0.298017
 C        -0.898291         1.187652         0.133815
 C        -1.693978         1.348264        -1.159872
 H        -4.406727        -0.390415        -1.529090
 H        -2.845194        -1.572703        -2.892508
 H        -1.034397        -1.022554        -2.738318
 H        -2.950873        -1.993062        -0.562769
 H        -1.050108        -1.602010         1.089858
 H        -0.295470        -2.106722        -0.522773
 H        -1.546401         0.938138         0.984568
 H        -0.257900         2.044951         0.383045
 H        -2.465352         2.044264        -0.937437
 H        -1.033738         1.557129        -1.989940
