19
Iteration:  3080
 O        -4.029880         0.221640        -1.595641
 C        -2.650165         0.040167        -1.361663
 C        -1.853946        -0.859910        -2.300178
 C        -2.000516        -1.351713        -0.917778
 C        -0.902768        -1.275512         0.075074
 C        -0.008505        -0.042166        -0.077053
 O         1.166886        -0.181318        -0.185626
 C        -0.684499         1.304912        -0.083590
 C        -1.975915         1.419263        -1.031067
 H        -4.521972        -0.210091        -0.917499
 H        -2.394594        -1.464093        -3.061147
 H        -0.900556        -0.529953        -2.580183
 H        -2.892482        -2.033604        -0.745379
 H        -1.326669        -1.326542         1.127768
 H        -0.227434        -2.174685        -0.060639
 H        -1.041060         1.583412         0.979716
 H         0.135561         1.959694        -0.382790
 H        -2.748789         1.844941        -0.421622
 H        -1.918073         2.159341        -1.900716
