19
Iteration:  4131
 O        -4.025450         0.192268        -1.191520
 C        -2.630534         0.022243        -1.418286
 C        -2.213172        -1.023385        -2.441190
 C        -2.007735        -1.233447        -0.986976
 C        -0.649266        -1.306138        -0.379868
 C         0.031152         0.027270        -0.016171
 O         1.127070        -0.038742         0.346781
 C        -0.864988         1.301953        -0.112064
 C        -1.743535         1.316586        -1.366603
 H        -4.150180         0.670933        -0.354486
 H        -3.250536        -1.437306        -2.802938
 H        -1.375726        -1.130095        -3.111893
 H        -2.788160        -1.939209        -0.671622
 H        -0.825687        -1.980104         0.436510
 H         0.073229        -1.758773        -1.173011
 H        -1.317627         1.419418         0.876583
 H        -0.081519         2.171111        -0.198036
 H        -2.342030         2.298626        -1.349892
 H        -1.195116         1.245487        -2.266731
