19
Iteration:   740charge 0 multiplicity 1
 O        -3.796839         0.370182        -0.789305
 C        -2.592128        -0.058757        -1.529500
 C        -2.740196        -1.060417        -2.483244
 C        -1.906393        -1.315363        -1.140176
 C        -0.396071        -1.232884        -0.782657
 C        -0.064308         0.095054         0.095341
 O         0.653614         0.011656         1.080377
 C        -0.596973         1.331803        -0.482061
 C        -1.582423         1.061411        -1.664758
 H        -3.439424         0.481244         0.135427
 H        -3.605725        -1.685931        -2.468552
 H        -2.424981        -0.923510        -3.593785
 H        -2.536257        -1.942314        -0.566564
 H        -0.038085        -2.256099        -0.602726
 H         0.186591        -0.902416        -1.667294
 H        -1.097197         1.909712         0.347348
 H         0.272942         1.916396        -0.792501
 H        -2.115083         1.938971        -1.870051
 H        -0.947881         0.786909        -2.481406
