19
Iteration:  4933
 O        -4.105039        -0.008990        -1.094687
 C        -2.683792         0.123604        -1.382042
 C        -2.121098        -0.504509        -2.528990
 C        -1.955186        -1.254373        -1.170502
 C        -0.747084        -1.364251        -0.305322
 C        -0.013578        -0.019141        -0.046862
 O         1.017218        -0.129961         0.709802
 C        -0.467254         1.097937        -0.882860
 C        -1.942995         1.398917        -0.793034
 H        -4.541190        -0.074962        -1.920566
 H        -2.694692        -1.077387        -3.241699
 H        -1.176741        -0.027310        -2.985189
 H        -2.721883        -1.994728        -1.035635
 H        -0.810836        -1.974638         0.617159
 H         0.098965        -1.936174        -0.966540
 H         0.195217         1.970612        -0.581608
 H        -0.040176         0.976731        -1.962565
 H        -2.088194         1.664546         0.215993
 H        -2.219508         2.230072        -1.425422
