19
Iteration:  2949
 O        -4.085961         0.160556        -1.589353
 C        -2.660386         0.054587        -1.421038
 C        -1.977182        -0.926385        -2.301085
 C        -2.018642        -1.135860        -0.861184
 C        -0.834683        -1.220394        -0.100611
 C         0.034375        -0.032662        -0.059138
 O         1.277542        -0.195964        -0.086299
 C        -0.788265         1.211505         0.054150
 C        -1.920245         1.414126        -1.113648
 H        -4.642056         0.146274        -0.806002
 H        -2.615436        -1.590193        -2.865430
 H        -0.961501        -0.845801        -2.631496
 H        -2.838281        -1.824343        -0.532695
 H        -0.933172        -1.563482         0.945758
 H        -0.207944        -1.977170        -0.631443
 H        -1.231365         1.247148         1.090559
 H        -0.208598         2.085839         0.012122
 H        -2.660547         2.126992        -0.803314
 H        -1.346340         1.657629        -2.150345
