19
Iteration:  2809charge 0 multiplicity 1
 O        -3.993249         0.400616        -1.506254
 C        -2.612518        -0.030385        -1.487647
 C        -2.224622        -1.200064        -2.447055
 C        -2.114618        -1.216813        -0.835692
 C        -0.724004        -1.311798        -0.183102
 C         0.070171         0.017334        -0.051583
 O         1.262658        -0.008822         0.051166
 C        -0.907370         1.253814         0.103456
 C        -1.781399         1.298949        -1.176736
 H        -4.176898         0.788085        -0.540301
 H        -2.967065        -1.709210        -2.943230
 H        -1.212382        -0.896495        -3.004369
 H        -2.719055        -2.114991        -0.524218
 H        -0.726572        -1.704907         0.810031
 H        -0.070427        -1.902179        -0.848560
 H        -1.456454         0.999371         1.018991
 H        -0.447004         2.202007         0.398741
 H        -2.514012         2.038302        -1.088630
 H        -1.049636         1.581860        -1.865308
