19
Iteration:   227charge 0 multiplicity 1
 O        -3.957418         0.249540        -1.480021
 C        -2.566091        -0.028277        -1.547345
 C        -1.987169        -1.022787        -2.409988
 C        -2.078726        -1.240128        -0.899980
 C        -1.012781        -1.168801         0.286154
 C         0.000107        -0.026394        -0.034288
 O         1.193858        -0.123295        -0.266842
 C        -0.739557         1.249748        -0.030542
 C        -1.791572         1.339095        -1.148068
 H        -4.314541        -0.081528        -0.698140
 H        -2.523738        -1.645502        -3.055834
 H        -1.084583        -0.659031        -2.792680
 H        -2.818653        -1.997349        -0.699232
 H        -1.554216        -0.759345         1.158671
 H        -0.641612        -2.135797         0.541723
 H        -1.297102         1.276155         0.927328
 H         0.002450         2.066117        -0.046797
 H        -2.530530         1.979681        -0.822043
 H        -1.466534         1.981012        -1.975341
