19
Iteration:  3095
 O        -4.028018         0.306468        -1.640641
 C        -2.603393         0.025056        -1.486601
 C        -1.877632        -0.892964        -2.357698
 C        -2.046675        -1.267716        -0.848247
 C        -0.781252        -1.289505         0.144588
 C        -0.008376        -0.053798        -0.033808
 O         1.177417        -0.247838        -0.230961
 C        -0.775413         1.341527        -0.109420
 C        -2.061461         1.325764        -0.885577
 H        -4.495774        -0.105969        -0.795333
 H        -2.496496        -1.356277        -3.065382
 H        -0.830916        -0.519166        -2.780495
 H        -2.439763        -2.221388        -0.754904
 H        -1.198288        -1.217950         1.166877
 H        -0.004181        -2.046426         0.095251
 H        -0.973003         1.536508         0.964772
 H        -0.118881         2.224301        -0.409269
 H        -2.871442         1.986627        -0.461152
 H        -1.675923         1.793778        -1.912821
