19
Iteration:   265charge 0 multiplicity 1
 O        -3.974364         0.279190        -1.616073
 C        -2.640417         0.081672        -1.392217
 C        -1.915379        -0.977217        -2.236633
 C        -2.137266        -1.281850        -0.730341
 C        -0.862621        -1.270875         0.105398
 C        -0.065348        -0.025405        -0.038857
 O         1.132038        -0.179220        -0.255576
 C        -0.756555         1.344178        -0.048300
 C        -1.806355         1.321748        -1.190725
 H        -4.566063        -0.212419        -0.891581
 H        -2.327159        -1.576993        -3.065751
 H        -0.896502        -0.498128        -2.481481
 H        -2.895664        -2.074352        -0.623136
 H        -1.146910        -1.497555         1.143922
 H        -0.060982        -2.007924        -0.175658
 H        -1.211975         1.542574         0.949293
 H         0.040402         2.095818        -0.214539
 H        -2.608100         2.139740        -1.022312
 H        -1.208669         1.460740        -2.107714
