19
Iteration:  4370
 O        -4.006743         0.168748        -1.710669
 C        -2.611562         0.025235        -1.361328
 C        -1.793136        -0.817200        -2.285318
 C        -2.057632        -1.292148        -0.877454
 C        -0.897177        -1.334179         0.240213
 C        -0.032838        -0.045068        -0.100279
 O         1.154504        -0.098088        -0.506791
 C        -0.804286         1.205179         0.061212
 C        -1.970775         1.360361        -0.873022
 H        -4.441755         0.615000        -0.854733
 H        -2.104839        -1.404956        -3.113702
 H        -0.796435        -0.239413        -2.518292
 H        -2.612644        -2.182931        -0.702866
 H        -1.315102        -1.070752         1.334874
 H        -0.209297        -2.242073         0.103791
 H        -1.057220         1.241879         1.158283
 H        -0.207950         2.193607        -0.117665
 H        -2.644874         2.026287        -0.469233
 H        -1.531218         1.973393        -1.820451
