19
Iteration:   478charge 0 multiplicity 1
 O        -4.042554         0.235336        -1.375638
 C        -2.536564         0.093027        -1.584902
 C        -2.353863        -1.186082        -2.328322
 C        -2.106179        -1.168879        -0.856554
 C        -0.714586        -1.317013        -0.289356
 C         0.090094         0.047186        -0.064551
 O         1.244170        -0.067572         0.319755
 C        -0.847201         1.195489        -0.060729
 C        -1.693134         1.408330        -1.339030
 H        -4.280858         1.150275        -1.179425
 H        -3.298070        -1.496595        -2.719516
 H        -1.522378        -1.545680        -3.003897
 H        -2.819150        -1.535957        -0.090272
 H        -0.573843        -1.654349         0.735930
 H        -0.090524        -2.058202        -0.780931
 H        -1.460848         0.904385         0.773441
 H        -0.295668         2.074542         0.175391
 H        -2.373921         2.213886        -1.269631
 H        -1.132096         1.675312        -2.260998
