19
Iteration:  4208
 O        -4.043018         0.200569        -1.417201
 C        -2.590759         0.043919        -1.428763
 C        -2.010975        -0.971185        -2.348862
 C        -2.079892        -1.271025        -0.853349
 C        -0.719381        -1.311989        -0.132761
 C         0.027915         0.005858        -0.093994
 O         1.173747        -0.070611         0.002626
 C        -0.869081         1.264252        -0.024093
 C        -1.831522         1.386912        -1.196504
 H        -4.390836        -0.019360        -0.467337
 H        -2.877026        -1.279809        -2.943406
 H        -1.117364        -0.717136        -2.905791
 H        -2.951111        -1.873127        -0.645014
 H        -0.829077        -1.777733         0.804102
 H        -0.172542        -2.000749        -0.836905
 H        -1.305411         1.026438         0.926248
 H        -0.296286         2.239108         0.110936
 H        -2.532176         2.299491        -1.156793
 H        -1.295813         1.540655        -2.116379
