19
Iteration:  3343
 O        -3.995802         0.198329        -1.503125
 C        -2.587525         0.090464        -1.437622
 C        -2.123935        -1.021508        -2.321687
 C        -2.145872        -1.274740        -0.837916
 C        -0.745389        -1.320727        -0.186329
 C        -0.029944        -0.053969        -0.126910
 O         1.203631         0.031038         0.027181
 C        -0.813513         1.190958         0.041284
 C        -1.752767         1.376020        -1.192358
 H        -4.554914         0.365672        -0.676768
 H        -2.862515        -1.517228        -3.007434
 H        -1.153731        -0.747444        -2.625383
 H        -3.006395        -1.846011        -0.512699
 H        -0.597274        -1.556841         0.852691
 H        -0.052801        -2.036836        -0.665625
 H        -1.423660         1.069988         0.896130
 H        -0.135325         2.062915         0.168106
 H        -2.508867         2.191167        -0.815263
 H        -1.203515         1.783906        -2.069996
