19
Iteration:  3783
 O        -3.909275         0.223337        -0.850585
 C        -2.613168         0.057636        -1.384908
 C        -2.572249        -1.069162        -2.375136
 C        -1.831264        -1.307362        -0.977303
 C        -0.328835        -1.134875        -0.955122
 C        -0.041245         0.106498        -0.000769
 O         0.536820        -0.182804         1.014590
 C        -0.599736         1.443555        -0.549980
 C        -1.611653         1.155205        -1.597655
 H        -3.709219         0.209130         0.130854
 H        -3.582670        -1.540463        -2.662647
 H        -1.979190        -1.089376        -3.251533
 H        -2.118168        -1.955195        -0.120855
 H         0.117196        -1.903704        -0.361199
 H         0.129189        -1.258620        -1.979398
 H        -1.080148         2.030049         0.220311
 H         0.197426         2.016266        -0.979017
 H        -2.167275         2.151350        -1.710956
 H        -1.254198         0.949543        -2.570594
