19
Iteration:  2007
 O        -3.818600         0.298485        -1.169352
 C        -2.516007         0.078643        -1.529173
 C        -2.112694        -1.119335        -2.446858
 C        -2.035765        -1.227377        -0.913346
 C        -0.841701        -1.331172        -0.070900
 C        -0.105355         0.022883        -0.050599
 O         1.115648        -0.027934        -0.058978
 C        -1.024517         1.252110         0.131056
 C        -1.631078         1.305335        -1.363044
 H        -4.393964         0.653370        -1.953369
 H        -2.942168        -1.708821        -2.817098
 H        -1.236487        -0.980343        -3.114405
 H        -2.923573        -1.849164        -0.717228
 H        -1.161867        -1.627411         0.963959
 H        -0.223217        -2.163385        -0.440483
 H        -1.883990         1.244705         0.767945
 H        -0.399878         2.085398         0.395631
 H        -2.240980         2.236096        -1.531141
 H        -0.696725         1.289605        -1.779817
