19
Iteration:  1667charge 0 multiplicity 1
 O        -3.947909         0.417247        -1.473589
 C        -2.548860         0.027528        -1.516716
 C        -2.109733        -1.016118        -2.348775
 C        -2.081707        -1.268207        -0.882563
 C        -0.846436        -1.382155        -0.013860
 C         0.008150        -0.043987        -0.072190
 O         1.209391         0.058174        -0.100804
 C        -0.903667         1.181593         0.140959
 C        -1.716749         1.309767        -1.170842
 H        -4.512734        -0.463476        -1.475664
 H        -2.905668        -1.588909        -2.902599
 H        -1.311758        -0.941542        -3.101753
 H        -2.895587        -1.921795        -0.553214
 H        -1.229816        -1.551734         1.033516
 H        -0.264984        -2.273625        -0.322166
 H        -1.661916         1.042808         1.015584
 H        -0.222207         2.050591         0.310873
 H        -2.384101         2.243647        -1.261566
 H        -0.961199         1.389620        -1.990572
