19
Iteration:  4833
 O        -4.131612         0.052602        -1.152633
 C        -2.660332         0.108485        -1.250339
 C        -2.303503        -0.703310        -2.459158
 C        -1.925289        -1.217519        -1.111329
 C        -0.496666        -1.423791        -0.641040
 C         0.051402        -0.100042        -0.081540
 O         0.744584        -0.059757         0.908072
 C        -0.354379         1.172566        -0.822882
 C        -1.858917         1.383892        -0.985802
 H        -4.518058         0.647350        -0.424797
 H        -3.019704        -1.265107        -3.024604
 H        -1.528305        -0.375815        -3.054206
 H        -2.576362        -1.972098        -0.678523
 H        -0.341468        -2.197630         0.067012
 H         0.149406        -1.607755        -1.598412
 H        -0.030568         2.187829        -0.366891
 H         0.305642         1.313781        -1.752195
 H        -2.184038         1.836236        -0.082993
 H        -2.073621         2.171122        -1.708508
