19
Iteration:  3465
 O        -4.002793         0.419893        -1.240268
 C        -2.632245         0.043505        -1.497834
 C        -2.292045        -1.021620        -2.463185
 C        -2.071502        -1.335060        -0.936166
 C        -0.560541        -1.388764        -0.405295
 C         0.013145        -0.054330         0.091737
 O         1.197201         0.104247         0.315476
 C        -0.919015         1.183192        -0.073135
 C        -1.744585         1.302798        -1.374509
 H        -4.258092         0.020201        -0.457672
 H        -3.002418        -1.730825        -2.844421
 H        -1.246344        -0.963486        -2.928605
 H        -2.806552        -1.938829        -0.354163
 H        -0.654019        -1.968721         0.495095
 H         0.189270        -1.937727        -0.998408
 H        -1.561672         1.274714         0.812947
 H        -0.159575         2.011356        -0.044460
 H        -2.575163         2.028754        -1.425272
 H        -1.117950         1.354600        -2.347821
