19
Iteration:  4178charge 0 multiplicity 1
 O        -4.081934         0.265295        -1.386839
 C        -2.679727         0.064023        -1.389179
 C        -2.194856        -1.027082        -2.408253
 C        -2.061031        -1.272630        -0.983141
 C        -0.697980        -1.325507        -0.246872
 C         0.056919        -0.058943        -0.017906
 O         1.354957         0.106479         0.225939
 C        -0.791486         1.156117        -0.115080
 C        -1.852920         1.315621        -1.232998
 H        -4.438951         0.181940        -0.554546
 H        -2.963893        -1.501036        -2.930537
 H        -1.339859        -0.733831        -3.078785
 H        -2.845426        -1.926925        -0.604722
 H        -1.103595        -1.653953         0.773287
 H        -0.204257        -2.145544        -0.781995
 H        -1.301732         1.075961         0.933800
 H        -0.206900         2.073128        -0.095677
 H        -2.520332         2.228512        -1.022553
 H        -1.345108         1.518063        -2.140492
