19
Iteration:  1476
 O        -4.031169         0.113607        -1.706456
 C        -2.616551         0.092646        -1.386167
 C        -1.987320        -0.815079        -2.303604
 C        -2.141337        -1.267908        -0.900582
 C        -0.849177        -1.245521         0.064753
 C         0.059333        -0.069007        -0.016706
 O         1.295033        -0.243379        -0.095484
 C        -0.713592         1.276968        -0.049171
 C        -1.984953         1.465178        -1.049162
 H        -4.467499         0.206731        -0.721582
 H        -2.570346        -1.231028        -3.087526
 H        -0.969942        -0.811438        -2.785805
 H        -2.963669        -1.899656        -0.603836
 H        -1.412536        -1.291633         0.982843
 H        -0.393079        -2.183703        -0.218718
 H        -1.018783         1.479210         0.938961
 H         0.143299         1.879020        -0.430648
 H        -2.684440         1.979706        -0.410394
 H        -1.638514         1.971306        -1.960361
