19
Iteration:  2725
 O        -3.990490         0.325575        -1.230833
 C        -2.625727         0.003632        -1.477009
 C        -2.204514        -1.030121        -2.561170
 C        -2.101242        -1.372043        -1.067254
 C        -0.776839        -1.240147        -0.193074
 C         0.068939         0.067927        -0.099063
 O         1.187214        -0.085399         0.327605
 C        -0.762717         1.324384        -0.104650
 C        -1.811177         1.289157        -1.252847
 H        -4.299951        -0.083693        -0.458924
 H        -2.739597        -1.733611        -3.065298
 H        -1.149834        -0.937468        -3.035515
 H        -2.863082        -1.935795        -0.496629
 H        -1.014154        -1.492752         0.911959
 H        -0.062560        -2.055242        -0.438122
 H        -1.113956         1.108814         0.941596
 H        -0.153450         2.281210        -0.149544
 H        -2.558842         2.226975        -1.222967
 H        -1.196511         1.548521        -2.269582
