19
Iteration:  2643
 O        -3.891910         0.455698        -1.312247
 C        -2.635339         0.035938        -1.487792
 C        -2.241772        -1.210258        -2.432589
 C        -2.068083        -1.323371        -0.936048
 C        -0.684968        -1.334179        -0.268420
 C         0.000861         0.030832        -0.043601
 O         1.216901         0.025469         0.233108
 C        -0.867192         1.276593         0.006676
 C        -1.775762         1.319985        -1.251246
 H        -4.498267        -0.243800        -1.504694
 H        -3.269806        -1.465257        -2.966654
 H        -1.534042        -1.031372        -3.239771
 H        -2.737946        -2.061089        -0.471954
 H        -0.870079        -1.782330         0.705232
 H        -0.136581        -2.047719        -0.903983
 H        -1.487523         1.024267         0.958156
 H        -0.411866         2.231635         0.255310
 H        -2.359003         2.180649        -1.300497
 H        -1.180058         1.242863        -2.097724
