19
Iteration:  3172
 O        -4.016176         0.209963        -1.763738
 C        -2.571760         0.088683        -1.392446
 C        -1.782417        -0.841484        -2.262869
 C        -2.056594        -1.304485        -0.745667
 C        -0.838608        -1.323391         0.171777
 C        -0.022076        -0.065209        -0.047589
 O         1.147042        -0.209825        -0.411017
 C        -0.830667         1.236444        -0.011533
 C        -2.018605         1.441356        -0.949298
 H        -4.399031         0.526327        -0.946201
 H        -2.389916        -1.435421        -3.105425
 H        -0.734067        -0.651957        -2.351449
 H        -2.726394        -2.048459        -0.356925
 H        -1.025210        -1.551463         1.257292
 H        -0.116910        -2.063987        -0.260753
 H        -1.121564         1.455713         1.076569
 H        -0.135496         2.092978        -0.263073
 H        -2.783545         2.009463        -0.363753
 H        -1.777239         2.150331        -1.867851
