19
Iteration:   854
 O        -3.876525         0.289197        -0.845382
 C        -2.620344         0.027826        -1.460326
 C        -2.694548        -1.090351        -2.380710
 C        -1.925622        -1.185316        -1.021202
 C        -0.237848        -1.191784        -0.916289
 C         0.000101         0.050860         0.021493
 O         0.532625        -0.153659         1.149902
 C        -0.573774         1.362320        -0.605928
 C        -1.601432         1.119081        -1.656193
 H        -3.618844         0.671486         0.123836
 H        -3.529594        -1.702656        -2.462940
 H        -2.188566        -1.071982        -3.352050
 H        -2.493542        -1.744107        -0.267811
 H         0.041464        -2.113995        -0.422388
 H         0.228412        -0.864860        -1.872927
 H        -0.930206         1.974441         0.264537
 H         0.385105         1.944232        -0.864272
 H        -2.144773         2.055674        -1.993503
 H        -0.990600         0.845687        -2.543555
