19
Iteration:  3118
 O        -3.986226         0.178653        -1.726088
 C        -2.629306         0.060593        -1.370717
 C        -1.889206        -0.891581        -2.280009
 C        -2.122301        -1.257754        -0.884118
 C        -0.942726        -1.273306         0.118963
 C         0.059550        -0.051143        -0.076759
 O         1.235224        -0.119485        -0.291807
 C        -0.662384         1.224957         0.002749
 C        -2.022440         1.348442        -0.951521
 H        -4.566684         0.314566        -0.999354
 H        -2.460105        -1.525206        -3.040382
 H        -0.933845        -0.478195        -2.698061
 H        -2.800254        -2.048310        -0.683132
 H        -1.388206        -1.081143         1.110118
 H        -0.297410        -2.151148         0.165583
 H        -1.016050         1.383305         1.016111
 H        -0.000232         2.101668        -0.189997
 H        -2.658819         1.785246        -0.106829
 H        -1.913295         2.100198        -1.817184
