19
Iteration:  1373
 O        -3.954132         0.124053        -1.815231
 C        -2.605767         0.153213        -1.344632
 C        -1.859458        -0.917441        -2.280594
 C        -2.208642        -1.217744        -0.802551
 C        -0.984780        -1.312974         0.146466
 C         0.069623        -0.080599        -0.111706
 O         1.238247        -0.190602        -0.350158
 C        -0.661275         1.311600         0.127599
 C        -1.983503         1.398901        -0.953867
 H        -4.502277         0.199451        -1.118888
 H        -2.507387        -1.419643        -3.011182
 H        -0.807326        -0.835245        -2.493308
 H        -3.222740        -1.655345        -0.706921
 H        -1.265899        -1.282249         1.171945
 H        -0.433814        -2.259875        -0.039516
 H        -0.890443         1.219402         1.147594
 H        -0.290883         2.247834        -0.156860
 H        -2.710233         2.087849        -0.571320
 H        -1.663529         2.012077        -1.770333
