19
Iteration:  1124
 O        -4.054155         0.325348        -1.370164
 C        -2.598629         0.066558        -1.494785
 C        -2.289657        -1.024205        -2.372642
 C        -2.063227        -1.252493        -0.942649
 C        -0.699252        -1.358397        -0.265512
 C        -0.019418        -0.039162         0.069942
 O         1.176747        -0.009333         0.255339
 C        -0.797103         1.287162        -0.031192
 C        -1.625965         1.261771        -1.377320
 H        -4.156390         0.474976        -0.306059
 H        -3.027571        -1.756462        -2.877887
 H        -1.636779        -0.795523        -3.171509
 H        -2.852798        -1.902061        -0.591179
 H        -0.852034        -1.918236         0.661858
 H         0.107342        -1.877913        -0.715066
 H        -1.448930         1.246234         0.825083
 H        -0.310044         2.226804        -0.033020
 H        -2.224491         2.152733        -1.511495
 H        -1.003768         1.082738        -2.267309
