19
Iteration:  3263
 O        -3.967250         0.197794        -1.578073
 C        -2.575486         0.038488        -1.426536
 C        -1.911399        -0.835114        -2.317407
 C        -2.072298        -1.242753        -0.739878
 C        -0.856094        -1.450083         0.079751
 C        -0.062996        -0.125686        -0.050806
 O         1.172589        -0.008683        -0.315838
 C        -0.869412         1.235338        -0.005846
 C        -1.849864         1.366563        -1.101233
 H        -4.445411         0.661375        -0.794480
 H        -2.226948        -1.290729        -3.193206
 H        -0.782320        -0.557982        -2.379266
 H        -2.953308        -1.902418        -0.546108
 H        -1.214039        -1.502737         1.102957
 H        -0.208530        -2.269843        -0.201187
 H        -1.467554         1.197923         0.925092
 H        -0.248898         2.090089         0.098520
 H        -2.560455         2.286482        -0.775636
 H        -1.368637         1.693095        -2.011459
