19
Iteration:  2224charge 0 multiplicity 1
 O        -4.047301         0.315662        -1.401159
 C        -2.663493         0.045395        -1.461642
 C        -1.972607        -1.012315        -2.315998
 C        -2.082717        -1.222673        -0.879578
 C        -0.825304        -1.293091         0.012729
 C         0.024694        -0.059397        -0.034080
 O         1.216263        -0.045082        -0.041434
 C        -0.820810         1.226542        -0.024357
 C        -1.850465         1.283569        -1.206011
 H        -4.269889         0.382981        -2.371786
 H        -2.585914        -1.706169        -2.858315
 H        -1.087605        -0.769984        -2.927544
 H        -2.839468        -2.003005        -0.941776
 H        -0.847887        -1.550908         1.067626
 H        -0.225141        -2.129095        -0.360173
 H        -1.197439         1.292096         0.926616
 H        -0.136295         2.044575        -0.082120
 H        -2.456353         2.127371        -1.137864
 H        -1.334269         1.647297        -2.118725
