19
Iteration:  2835charge 0 multiplicity 1
 O        -3.978190         0.377955        -1.562657
 C        -2.610768         0.109083        -1.419715
 C        -2.217557        -1.066828        -2.339736
 C        -2.114091        -1.318642        -0.844101
 C        -0.670396        -1.405805        -0.159807
 C        -0.010887        -0.081296         0.029127
 O         1.231474         0.152595        -0.039708
 C        -0.929719         1.083064         0.019481
 C        -1.693882         1.287869        -1.195383
 H        -4.400315         0.382069        -0.621402
 H        -3.098124        -1.345674        -3.046108
 H        -1.309173        -0.913759        -2.819050
 H        -2.890212        -1.863016        -0.314641
 H        -0.878859        -1.555584         0.947943
 H         0.032619        -2.090966        -0.628761
 H        -1.624956         1.104091         0.910248
 H        -0.310100         2.004494         0.310627
 H        -2.252484         2.276352        -1.034221
 H        -0.912702         1.507354        -1.958293
