19
Iteration:  4924
 O        -4.151857         0.000524        -1.081008
 C        -2.673829         0.098746        -1.269939
 C        -2.083394        -0.538146        -2.537405
 C        -1.985050        -1.247155        -1.199409
 C        -0.706749        -1.358965        -0.336771
 C         0.053178        -0.100584        -0.076272
 O         0.913783        -0.062716         0.708970
 C        -0.377895         1.144867        -0.869241
 C        -1.940580         1.389226        -0.806919
 H        -4.408416         0.043751        -1.975025
 H        -2.833896        -0.806461        -3.412597
 H        -1.118750        -0.252968        -3.088071
 H        -2.702991        -2.090043        -1.082955
 H        -0.858541        -1.956678         0.638550
 H         0.038046        -1.921881        -1.025113
 H         0.253576         1.928306        -0.567739
 H        -0.063904         0.726341        -1.955835
 H        -2.163480         1.656396         0.202938
 H        -2.337472         2.286344        -1.386892
