19
Iteration:  2038charge 0 multiplicity 1
 O        -3.982984         0.276122        -1.301989
 C        -2.595330         0.051332        -1.464340
 C        -2.172831        -0.961519        -2.421347
 C        -2.133202        -1.301716        -0.959810
 C        -0.810447        -1.402776        -0.004246
 C         0.006069        -0.046349         0.041529
 O         1.257811         0.092745        -0.005533
 C        -0.906943         1.239670         0.032251
 C        -1.675930         1.219508        -1.341336
 H        -4.230863         0.852205        -1.967889
 H        -2.885364        -1.435439        -3.060872
 H        -1.192407        -0.830111        -2.947933
 H        -2.983849        -1.914210        -0.602685
 H        -1.247590        -1.596154         1.003601
 H        -0.155873        -2.177718        -0.420687
 H        -1.703460         1.316226         0.904650
 H        -0.223983         2.087352         0.115152
 H        -2.044234         2.160179        -1.470692
 H        -0.826342         1.337017        -2.017862
