19
Iteration:  3109
 O        -4.007635         0.265255        -1.705399
 C        -2.635788         0.006435        -1.356014
 C        -1.868278        -0.868218        -2.385174
 C        -2.015873        -1.266862        -0.846559
 C        -0.920904        -1.239502         0.184327
 C         0.032840        -0.047966        -0.083553
 O         1.268234        -0.181489        -0.276159
 C        -0.745579         1.293348        -0.010124
 C        -2.039869         1.312985        -0.944752
 H        -4.515815         0.149773        -0.920556
 H        -2.506147        -1.607294        -3.028926
 H        -0.915980        -0.634871        -2.811301
 H        -2.848153        -1.960961        -0.703197
 H        -1.227397        -1.374563         1.196802
 H        -0.480599        -2.188204        -0.079503
 H        -1.003439         1.455333         0.999609
 H        -0.064846         2.044795        -0.363868
 H        -2.922221         1.790913        -0.349846
 H        -1.917509         1.977987        -1.753930
