19
Iteration:  1102charge 0 multiplicity 1
 O        -3.927749         0.265949        -1.219411
 C        -2.559894         0.103759        -1.559911
 C        -2.349280        -1.017030        -2.448536
 C        -2.100111        -1.198115        -0.927226
 C        -0.785872        -1.355689        -0.289767
 C         0.074124         0.041075        -0.010236
 O         1.228056         0.003742         0.395698
 C        -0.926692         1.147099        -0.137063
 C        -1.656480         1.306759        -1.420651
 H        -3.920171         0.548338        -0.386082
 H        -3.232647        -1.531749        -3.033266
 H        -1.460820        -1.075776        -3.036908
 H        -2.863429        -1.772566        -0.450066
 H        -0.990989        -1.929831         0.621657
 H        -0.002130        -1.950109        -0.658663
 H        -1.706448         1.098823         0.589718
 H        -0.284311         1.949113         0.146521
 H        -2.285773         2.151336        -1.614870
 H        -0.965922         1.148794        -2.266581
