19
Iteration:  2196
 O        -4.001041         0.039238        -1.320872
 C        -2.560242         0.081662        -1.422840
 C        -2.058640        -0.943942        -2.442531
 C        -2.134670        -1.283219        -0.948339
 C        -0.894459        -1.220494        -0.017798
 C        -0.005829        -0.011443        -0.032910
 O         1.239643        -0.167617         0.051055
 C        -0.757871         1.345011        -0.066156
 C        -1.804878         1.395084        -1.297300
 H        -4.431598         0.888316        -1.786725
 H        -2.824258        -1.330563        -3.112016
 H        -0.930966        -0.859346        -2.754545
 H        -2.962277        -1.949095        -0.711132
 H        -1.204348        -1.224068         1.077709
 H        -0.310889        -2.166778        -0.033163
 H        -1.362064         1.498038         0.977683
 H         0.037816         2.171695        -0.120913
 H        -2.581141         2.292046        -1.056137
 H        -1.207493         1.645324        -2.226855
