19
Iteration:  1579charge 0 multiplicity 1
 O        -4.050864         0.185866        -1.548450
 C        -2.619582         0.047356        -1.414747
 C        -1.995870        -0.876967        -2.407245
 C        -2.117813        -1.251617        -0.901573
 C        -0.921880        -1.332011         0.011062
 C         0.060452        -0.065465        -0.126571
 O         1.296995        -0.153724         0.017408
 C        -0.717533         1.282798        -0.051164
 C        -1.910000         1.415731        -1.119390
 H        -4.623766         0.309974        -0.784829
 H        -2.549646        -1.437709        -3.087274
 H        -0.936783        -0.681813        -2.697755
 H        -2.887974        -1.989698        -0.700829
 H        -1.245617        -1.373354         1.103565
 H        -0.332374        -2.253380        -0.181518
 H        -1.158156         1.431394         0.915757
 H         0.001800         2.095090         0.019062
 H        -2.623439         2.215751        -0.740560
 H        -1.473581         1.803344        -2.045827
