19
Iteration:  4932charge 0 multiplicity 1
 O        -4.112157        -0.009356        -1.088287
 C        -2.680219         0.119790        -1.380770
 C        -2.121520        -0.504900        -2.528070
 C        -1.955058        -1.258187        -1.174030
 C        -0.745248        -1.367300        -0.301696
 C        -0.003949        -0.019913        -0.050605
 O         1.005600        -0.125635         0.709041
 C        -0.463600         1.096099        -0.884511
 C        -1.942477         1.401498        -0.795701
 H        -4.524369        -0.068685        -1.973046
 H        -2.668945        -1.019102        -3.239327
 H        -1.184424        -0.069159        -2.997740
 H        -2.709971        -1.986765        -1.043551
 H        -0.803006        -1.956720         0.592163
 H         0.078455        -1.918215        -0.981032
 H         0.238947         1.974995        -0.576714
 H        -0.044535         0.960879        -1.919618
 H        -2.069348         1.692625         0.236394
 H        -2.239843         2.216292        -1.404354
