19
Iteration:  2552
 O        -3.912556         0.250118        -1.262947
 C        -2.601666         0.031193        -1.531873
 C        -2.276438        -1.078766        -2.495275
 C        -2.060354        -1.233662        -0.966285
 C        -0.780563        -1.466292        -0.079669
 C        -0.006752        -0.014402         0.020522
 O         1.172065         0.093021         0.115830
 C        -0.872069         1.278742         0.015111
 C        -1.648346         1.294237        -1.300316
 H        -4.256042         1.215946        -1.425357
 H        -3.125555        -1.543728        -3.035524
 H        -1.332056        -1.249827        -3.170746
 H        -2.894311        -1.891227        -0.604486
 H        -1.014962        -1.753022         0.944389
 H        -0.021570        -2.017598        -0.651287
 H        -1.563107         1.446430         0.860445
 H        -0.212066         2.237879         0.085761
 H        -2.377093         2.138631        -1.285631
 H        -0.959617         1.470525        -2.101629
