19
Iteration:   608charge 0 multiplicity 1
 O        -3.872452         0.375697        -1.096629
 C        -2.557399         0.061709        -1.459153
 C        -2.509108        -1.114987        -2.404487
 C        -2.015240        -1.277160        -0.916473
 C        -0.535734        -1.321389        -0.585844
 C        -0.048392        -0.069808        -0.019234
 O         0.954619         0.048010         0.659972
 C        -0.856877         1.209564        -0.245533
 C        -1.578046         1.264823        -1.573980
 H        -4.019150         1.080485        -0.505059
 H        -3.497271        -1.649714        -2.689020
 H        -1.721822        -1.022253        -3.143733
 H        -2.644628        -1.684798        -0.083343
 H        -0.368619        -2.139473         0.128518
 H         0.115310        -1.471417        -1.484122
 H        -1.513851         1.222365         0.703297
 H        -0.099386         1.991820        -0.042606
 H        -2.155592         2.082974        -1.922466
 H        -0.768844         1.059823        -2.292622
