19
Iteration:  4191
 O        -4.083278         0.249870        -1.407579
 C        -2.685110         0.049739        -1.455255
 C        -2.165162        -0.936270        -2.408419
 C        -2.070180        -1.209774        -0.861593
 C        -0.687135        -1.366449        -0.239319
 C         0.080530        -0.032825        -0.093540
 O         1.247818         0.027212         0.146376
 C        -0.834001         1.184020        -0.048740
 C        -1.815358         1.314287        -1.241515
 H        -4.408405        -0.021334        -0.444489
 H        -2.674557        -1.681970        -2.965181
 H        -1.115868        -0.732871        -2.758546
 H        -2.727610        -2.001530        -0.475238
 H        -0.746684        -1.617416         0.912076
 H         0.014280        -2.133359        -0.511807
 H        -1.481851         1.245045         0.908448
 H        -0.138376         1.972135         0.013791
 H        -2.510603         2.075801        -0.936787
 H        -1.290625         1.713991        -2.189128
