19
Iteration:  2669
 O        -4.032169         0.408381        -1.242700
 C        -2.674499         0.063638        -1.527185
 C        -2.088885        -0.991863        -2.414035
 C        -2.103962        -1.303629        -0.845540
 C        -0.638160        -1.365947        -0.266331
 C         0.017204        -0.014134        -0.026405
 O         1.169928         0.001949         0.272806
 C        -0.878256         1.176465        -0.121490
 C        -1.709772         1.265749        -1.367024
 H        -4.528385        -0.424043        -1.060626
 H        -2.859812        -1.460549        -3.003743
 H        -1.314459        -0.725831        -3.108938
 H        -2.960422        -1.843375        -0.402445
 H        -0.667893        -1.702908         0.814759
 H        -0.180490        -2.095337        -0.915444
 H        -1.488535         1.249305         0.793550
 H        -0.264328         2.082030        -0.054088
 H        -2.414813         2.156457        -1.147174
 H        -1.168688         1.522579        -2.369639
