19
Iteration:  3930charge 0 multiplicity 1
 O        -3.862041         0.257969        -0.872263
 C        -2.618998         0.022627        -1.453323
 C        -2.523236        -1.112064        -2.370724
 C        -1.895662        -1.255280        -1.034994
 C        -0.409638        -1.218097        -0.836720
 C        -0.007648         0.028313        -0.057271
 O         0.689174        -0.111547         0.979563
 C        -0.667402         1.425126        -0.444538
 C        -1.664293         1.265848        -1.601653
 H        -3.891411        -0.203108        -0.007738
 H        -3.486042        -1.804802        -2.499663
 H        -2.019608        -1.220793        -3.303035
 H        -2.482198        -1.876561        -0.363455
 H         0.018874        -2.058485        -0.229610
 H         0.180600        -1.166263        -1.799632
 H        -1.186317         1.954260         0.368751
 H         0.109697         2.103607        -0.783826
 H        -2.378121         1.977508        -1.610276
 H        -1.231768         1.355101        -2.652758
