19
Iteration:     3
 O        -3.979353         0.232801        -1.580428
 C        -2.584740         0.051451        -1.429006
 C        -2.044501        -1.035124        -2.309605
 C        -2.132789        -1.239275        -0.800809
 C        -0.835912        -1.293796         0.050323
 C        -0.023970        -0.012045        -0.051773
 O         1.200166        -0.059966        -0.125647
 C        -0.807968         1.277103        -0.023027
 C        -1.784154         1.327540        -1.223689
 H        -4.350094         0.496851        -0.633106
 H        -2.827833        -1.533210        -2.869984
 H        -0.994829        -0.961874        -2.759142
 H        -2.991039        -1.876218        -0.501334
 H        -1.137706        -1.362643         1.095899
 H        -0.210507        -2.200253        -0.140591
 H        -1.374958         1.285777         0.907399
 H        -0.060530         2.060648        -0.033846
 H        -2.439191         2.143501        -1.006682
 H        -1.138585         1.549282        -2.126320
