19
Iteration:    91charge 0 multiplicity 1
 O        -4.108539         0.173165        -1.563528
 C        -2.601760         0.061405        -1.357550
 C        -1.923831        -0.938509        -2.237617
 C        -2.109211        -1.216009        -0.784315
 C        -0.903255        -1.339749         0.055062
 C        -0.024490        -0.067246        -0.081306
 O         1.193522        -0.075800        -0.031312
 C        -0.674392         1.267855        -0.264012
 C        -1.799082         1.420855        -1.202346
 H        -4.444411         0.070275        -0.699237
 H        -2.596358        -1.370610        -3.059839
 H        -0.843169        -0.968194        -2.632918
 H        -2.933756        -1.935370        -0.484425
 H        -1.141795        -1.553666         1.081935
 H        -0.351889        -2.201323        -0.425100
 H        -1.171506         1.424796         0.697530
 H         0.102420         2.030306        -0.228905
 H        -2.466353         2.151324        -0.828903
 H        -1.643601         1.808798        -2.246658
