19
Iteration:  3518
 O        -4.048965         0.280849        -1.178644
 C        -2.642396         0.052547        -1.542248
 C        -2.322772        -1.113661        -2.450473
 C        -2.031814        -1.211394        -0.975167
 C        -0.599153        -1.354498        -0.425154
 C        -0.010159         0.026747         0.085990
 O         1.210278         0.018431         0.385756
 C        -0.940246         1.281234        -0.046290
 C        -1.620020         1.260465        -1.406036
 H        -4.033384         0.606526        -0.320332
 H        -3.231611        -1.632479        -2.785886
 H        -1.637313        -0.861387        -3.303494
 H        -2.694689        -1.951622        -0.489081
 H        -0.466527        -2.230193         0.222381
 H         0.075496        -1.633190        -1.272023
 H        -1.682254         1.229362         0.864443
 H        -0.260639         2.216256        -0.064449
 H        -2.269835         2.192986        -1.596029
 H        -0.945759         1.260197        -2.238636
