19
Iteration:     1charge 0 multiplicity 1
 O        -3.975482         0.240140        -1.576464
 C        -2.590679         0.055509        -1.432781
 C        -2.042281        -1.041866        -2.292747
 C        -2.124143        -1.240782        -0.791123
 C        -0.853924        -1.293394         0.044256
 C        -0.007495        -0.028235        -0.052032
 O         1.198289        -0.054706        -0.127191
 C        -0.811419         1.261069        -0.024472
 C        -1.777779         1.337549        -1.226055
 H        -4.330516         0.517102        -0.724375
 H        -2.752143        -1.581793        -2.908204
 H        -1.062134        -0.898058        -2.738109
 H        -2.923742        -1.898666        -0.464248
 H        -1.124295        -1.393796         1.105827
 H        -0.226928        -2.153462        -0.209528
 H        -1.396463         1.271742         0.905253
 H        -0.124750         2.109899        -0.009381
 H        -2.479300         2.164467        -1.080075
 H        -1.211932         1.574333        -2.133817
