19
Iteration:   358
 O        -4.029637         0.276634        -1.463805
 C        -2.600892         0.017961        -1.389503
 C        -1.964171        -1.031666        -2.270642
 C        -2.171316        -1.255730        -0.775432
 C        -0.826047        -1.331684        -0.017348
 C        -0.075248        -0.015873        -0.047211
 O         1.125666        -0.035465        -0.146951
 C        -0.798672         1.338689        -0.024307
 C        -1.696663         1.218681        -1.268579
 H        -4.086085         1.345140        -1.499872
 H        -2.723781        -1.514696        -2.940268
 H        -0.917480        -0.947574        -2.634212
 H        -2.974903        -2.011759        -0.501695
 H        -1.013282        -1.540634         1.083047
 H        -0.243037        -2.198252        -0.350605
 H        -1.364568         1.493738         0.904408
 H        -0.082236         2.133708        -0.158549
 H        -2.195354         2.183676        -1.277301
 H        -0.909306         1.188185        -2.140925
