19
Iteration:  1079charge 0 multiplicity 1
 O        -3.955736         0.422377        -1.172990
 C        -2.590622         0.014855        -1.491723
 C        -2.332845        -1.134216        -2.525079
 C        -2.044256        -1.256509        -0.953020
 C        -0.659118        -1.382369        -0.345756
 C        -0.012083         0.002987        -0.043459
 O         1.081942         0.036737         0.428103
 C        -0.868063         1.233930        -0.096052
 C        -1.601575         1.276529        -1.452205
 H        -4.053607         0.676469        -0.148624
 H        -3.237520        -1.650478        -2.946514
 H        -1.508957        -1.028287        -3.273494
 H        -2.745237        -1.895879        -0.445238
 H        -0.650444        -1.817081         0.659537
 H        -0.009914        -2.105289        -0.801171
 H        -1.702558         1.337401         0.573085
 H        -0.096844         1.900134         0.195517
 H        -2.351692         2.063154        -1.466508
 H        -0.923597         1.398395        -2.329095
