19
Iteration:  2400
 O        -4.003169         0.342393        -1.501005
 C        -2.579721         0.010435        -1.341900
 C        -2.062984        -0.920247        -2.352396
 C        -2.059007        -1.295150        -0.901943
 C        -0.857504        -1.349652        -0.041353
 C         0.044127        -0.069665        -0.049594
 O         1.250171         0.034063         0.034516
 C        -0.801033         1.197096        -0.118421
 C        -1.854588         1.323481        -1.190880
 H        -4.405019        -0.580223        -1.178260
 H        -2.894408        -1.431451        -3.017288
 H        -1.056502        -0.820450        -2.742689
 H        -2.994854        -1.811478        -0.561945
 H        -1.341382        -1.522672         0.937745
 H        -0.249771        -2.252539        -0.325837
 H        -1.392555         1.219017         0.812647
 H        -0.159687         2.138930        -0.169015
 H        -2.623824         2.008831        -0.968577
 H        -1.339265         1.561354        -2.168259
