19
Iteration:  2375
 O        -3.961180         0.293248        -1.349058
 C        -2.578775        -0.017237        -1.532513
 C        -1.998867        -0.967315        -2.428493
 C        -2.092629        -1.319191        -0.872955
 C        -0.844640        -1.296105         0.000779
 C        -0.063049        -0.054232        -0.044401
 O         1.139852        -0.057475        -0.097541
 C        -0.831807         1.287817         0.035962
 C        -1.741004         1.427029        -1.185352
 H        -4.322991        -0.655462        -1.374732
 H        -2.667587        -1.572160        -2.961796
 H        -1.007375        -0.771767        -2.921155
 H        -2.921543        -2.013554        -0.744747
 H        -1.277816        -1.328895         0.995400
 H        -0.181279        -2.146536        -0.097453
 H        -1.520879         1.360122         0.925392
 H        -0.115968         2.133515         0.017826
 H        -2.476594         2.258925        -1.218404
 H        -1.118173         1.518454        -1.954261
