19
Iteration:  1029
 O        -3.985103         0.337655        -1.229957
 C        -2.669470         0.097866        -1.528767
 C        -2.471306        -1.084557        -2.395412
 C        -2.094616        -1.263588        -0.930509
 C        -0.635243        -1.249331        -0.565338
 C        -0.002706         0.010671         0.061638
 O         1.127344         0.022164         0.603328
 C        -0.795085         1.235469        -0.154658
 C        -1.532414         1.174554        -1.473974
 H        -4.125054         0.464926        -0.317385
 H        -3.381780        -1.657820        -2.744086
 H        -1.704375        -1.228597        -3.073323
 H        -2.710707        -1.899452        -0.283479
 H        -0.265872        -2.082929         0.061406
 H         0.016607        -1.605961        -1.421685
 H        -1.418022         1.066718         0.776040
 H        -0.252258         2.224915        -0.053305
 H        -1.964865         2.139564        -1.779953
 H        -0.628988         1.056693        -2.073848
