19
Iteration:  3929
 O        -3.854973         0.260662        -0.870074
 C        -2.623254         0.025642        -1.453813
 C        -2.533978        -1.119036        -2.381821
 C        -1.883398        -1.260882        -1.026921
 C        -0.412843        -1.218413        -0.838227
 C        -0.014131         0.023249        -0.064056
 O         0.688445        -0.111568         0.985910
 C        -0.662294         1.431643        -0.447345
 C        -1.667696         1.270677        -1.596872
 H        -3.882999        -0.180610        -0.048655
 H        -3.440373        -1.858136        -2.469594
 H        -2.041967        -1.222421        -3.314691
 H        -2.497689        -1.868304        -0.379294
 H         0.046032        -2.068760        -0.235702
 H         0.184839        -1.159926        -1.783664
 H        -1.178270         1.937729         0.375438
 H         0.089978         2.101773        -0.765041
 H        -2.378456         2.006952        -1.622181
 H        -1.240299         1.372584        -2.656229
