19
Iteration:  4223charge 0 multiplicity 1
 O        -3.944725         0.148571        -1.456287
 C        -2.590603         0.103864        -1.328924
 C        -2.071120        -0.968540        -2.376331
 C        -2.094705        -1.289618        -0.905978
 C        -0.833660        -1.331656        -0.165305
 C        -0.003817        -0.019375        -0.018915
 O         1.207210        -0.042007        -0.119615
 C        -0.859446         1.304194         0.049847
 C        -1.820164         1.379292        -1.183973
 H        -4.303252         0.180156        -0.598451
 H        -2.600312        -1.607314        -3.058754
 H        -0.999926        -0.874771        -2.655266
 H        -2.796571        -2.045740        -0.512669
 H        -1.113352        -1.518041         0.942297
 H        -0.046763        -1.984111        -0.502476
 H        -1.637921         1.406315         0.876720
 H        -0.141319         2.068320         0.079916
 H        -2.578591         2.123302        -0.958924
 H        -1.259972         1.686611        -2.054404
