19
Iteration:   524
 O        -3.981640         0.481603        -1.141367
 C        -2.679023         0.041210        -1.458281
 C        -2.293359        -1.041737        -2.365691
 C        -2.109117        -1.363714        -0.959972
 C        -0.631246        -1.373825        -0.336896
 C        -0.062520        -0.030328         0.050410
 O         1.114913         0.079031         0.356938
 C        -0.798091         1.236733        -0.146942
 C        -1.596027         1.214022        -1.424947
 H        -4.516544         0.073123        -1.807464
 H        -3.125967        -1.548691        -2.964590
 H        -1.448960        -0.993009        -3.011759
 H        -2.747020        -2.012751        -0.438317
 H        -0.304261        -2.129226         0.416518
 H         0.029657        -1.690480        -1.151377
 H        -1.517501         1.338078         0.633194
 H        -0.108639         2.059188        -0.075339
 H        -2.067948         2.079236        -1.858930
 H        -0.860621         0.959616        -2.254215
