19
Iteration:  3352charge 0 multiplicity 1
 O        -3.979872         0.244901        -1.462599
 C        -2.648972         0.053293        -1.434031
 C        -2.040126        -0.940806        -2.286083
 C        -2.141601        -1.239064        -0.806856
 C        -0.756723        -1.337753        -0.222490
 C         0.022871        -0.058588        -0.191836
 O         1.178479         0.042452         0.086080
 C        -0.819780         1.203849         0.004250
 C        -1.812716         1.266233        -1.218440
 H        -4.163252         0.505097        -0.491481
 H        -2.730955        -1.421278        -3.033592
 H        -1.207301        -0.616769        -2.779927
 H        -2.760229        -2.090486        -0.513858
 H        -0.820428        -1.644285         0.807140
 H        -0.234032        -2.168556        -0.701043
 H        -1.584238         1.046877         0.778914
 H        -0.117509         2.043229         0.173091
 H        -2.563403         2.184968        -1.099691
 H        -1.193882         1.478784        -2.054508
