19
Iteration:  4177charge 0 multiplicity 1
 O        -4.084722         0.265981        -1.387165
 C        -2.673771         0.072374        -1.384381
 C        -2.192162        -1.036168        -2.413827
 C        -2.061924        -1.276120        -0.990906
 C        -0.710051        -1.327278        -0.242697
 C         0.061663        -0.056920        -0.015609
 O         1.358188         0.109915         0.232305
 C        -0.785913         1.158969        -0.120425
 C        -1.859778         1.309169        -1.230763
 H        -4.415467         0.198838        -0.534364
 H        -3.020023        -1.463734        -2.956656
 H        -1.393117        -0.739589        -3.109882
 H        -2.820892        -1.950825        -0.593633
 H        -1.069516        -1.662468         0.767750
 H        -0.180924        -2.142678        -0.798789
 H        -1.314132         1.076775         0.898761
 H        -0.181133         2.100499        -0.082874
 H        -2.537081         2.238700        -1.034224
 H        -1.334607         1.485577        -2.092455
