19
Iteration:  2133
 O        -4.104656         0.256719        -1.369635
 C        -2.670479         0.023758        -1.309756
 C        -2.030198        -0.945634        -2.403795
 C        -2.084870        -1.274150        -0.902432
 C        -0.818287        -1.314175        -0.119681
 C         0.057119        -0.015625        -0.136411
 O         1.244381        -0.127115         0.256180
 C        -0.679295         1.335074        -0.199942
 C        -1.887207         1.302892        -1.220969
 H        -4.504416         0.501064        -2.267711
 H        -2.461455        -1.604043        -3.110208
 H        -1.063100        -0.709066        -2.872814
 H        -2.780311        -2.105414        -0.726028
 H        -1.024242        -1.477119         0.933809
 H        -0.187611        -2.114627        -0.526495
 H        -1.066935         1.465528         0.756147
 H        -0.034201         2.199104        -0.342226
 H        -2.703155         2.041671        -1.093242
 H        -1.614059         1.658606        -2.203428
