19
Iteration:  1225
 O        -3.984049         0.310682        -1.583042
 C        -2.647517         0.009313        -1.418134
 C        -1.979072        -0.975326        -2.340024
 C        -2.116073        -1.346125        -0.848044
 C        -0.857455        -1.341217        -0.060890
 C        -0.052420         0.014599         0.000288
 O         1.154849        -0.040543        -0.152521
 C        -0.777898         1.274588         0.058354
 C        -1.732995         1.309329        -1.144658
 H        -4.326942         0.557022        -0.610557
 H        -2.603065        -1.334199        -3.117183
 H        -0.910870        -0.748400        -2.628521
 H        -2.986695        -1.950202        -0.511284
 H        -1.111181        -1.509261         0.982902
 H        -0.414638        -2.273428        -0.173469
 H        -1.266071         1.149385         1.004236
 H        -0.092799         2.154189         0.181746
 H        -2.493725         2.103154        -1.090804
 H        -1.128411         1.466418        -2.047587
