19
Iteration:  1359charge 0 multiplicity 1
 O        -3.936215         0.224837        -1.816837
 C        -2.565587         0.037123        -1.465289
 C        -1.892486        -0.973324        -2.247779
 C        -2.222131        -1.259597        -0.802734
 C        -0.931672        -1.203401         0.134673
 C         0.017178        -0.040964        -0.094486
 O         1.207658        -0.174904        -0.367852
 C        -0.709484         1.250947         0.083635
 C        -1.958187         1.393255        -0.876294
 H        -4.413746         0.489444        -0.905469
 H        -2.485005        -1.269731        -3.052790
 H        -0.816278        -0.897150        -2.520140
 H        -2.855535        -2.057395        -0.493442
 H        -1.283099        -1.077799         1.183896
 H        -0.372584        -2.128806        -0.005974
 H        -1.186365         1.181129         1.098346
 H         0.127204         1.968967         0.161427
 H        -2.832077         1.892848        -0.353638
 H        -1.635529         1.923791        -1.770881
