19
Iteration:  1398charge 0 multiplicity 1
 O        -4.000324         0.134789        -1.771422
 C        -2.627941         0.152111        -1.375233
 C        -1.824273        -0.800815        -2.215588
 C        -2.103519        -1.263315        -0.791637
 C        -0.853374        -1.263557         0.134770
 C        -0.064827        -0.135169        -0.052172
 O         1.101356        -0.214607        -0.286933
 C        -0.647753         1.217295        -0.030146
 C        -1.952614         1.444352        -1.013177
 H        -4.452567         0.189846        -0.888395
 H        -2.468441        -1.242572        -3.024630
 H        -0.805054        -0.517720        -2.504857
 H        -2.891567        -2.021434        -0.753576
 H        -1.142605        -1.293532         1.204133
 H        -0.281137        -2.175064        -0.135389
 H        -0.974809         1.157624         0.996783
 H         0.056560         2.039806        -0.234964
 H        -2.640612         2.120651        -0.536329
 H        -1.688800         2.077224        -1.894192
