19
Iteration:  4313
 O        -3.939525         0.129553        -1.736622
 C        -2.475008         0.102500        -1.387933
 C        -1.876085        -0.952058        -2.227311
 C        -2.133919        -1.273383        -0.771003
 C        -0.847938        -1.379931         0.063867
 C        -0.098950        -0.087633        -0.050917
 O         1.083343         0.042284        -0.538389
 C        -0.780534         1.218024         0.257408
 C        -1.885845         1.463252        -0.994251
 H        -4.513048         0.224103        -0.988315
 H        -2.593608        -1.259349        -3.059284
 H        -0.754491        -0.918445        -2.441910
 H        -3.014315        -1.850942        -0.415804
 H        -1.100260        -1.697926         1.176699
 H        -0.244507        -2.234531        -0.204234
 H        -1.293832         1.293953         1.259628
 H        -0.012987         2.002502         0.066531
 H        -2.669362         1.947163        -0.529882
 H        -1.486075         1.933446        -1.972727
