19
Iteration:  4070charge 0 multiplicity 1
 O        -3.923067         0.412372        -1.139867
 C        -2.654589        -0.006483        -1.474234
 C        -2.549741        -1.175341        -2.493847
 C        -1.988520        -1.353178        -1.037297
 C        -0.499992        -1.270219        -0.551169
 C         0.028238         0.098781         0.056800
 O         1.103583         0.057857         0.535777
 C        -0.872041         1.283450        -0.032195
 C        -1.676074         1.180993        -1.480777
 H        -4.099699         0.161564        -0.277310
 H        -3.429840        -1.749952        -2.877966
 H        -1.879822        -0.812468        -3.290960
 H        -2.490366        -2.057413        -0.364812
 H        -0.316088        -2.159823         0.162958
 H         0.150602        -1.611597        -1.334756
 H        -1.625310         1.243729         0.791429
 H        -0.276521         2.147250         0.087998
 H        -2.122181         2.197873        -1.604578
 H        -0.812069         1.309612        -2.253160
