19
Iteration:  2812
 O        -3.994509         0.425923        -1.512318
 C        -2.607591        -0.020537        -1.478167
 C        -2.217321        -1.185327        -2.438140
 C        -2.088808        -1.229605        -0.816472
 C        -0.754828        -1.352487        -0.177099
 C         0.055990         0.009227        -0.054103
 O         1.291791         0.017868         0.042350
 C        -0.892265         1.249219         0.121171
 C        -1.792524         1.285563        -1.204585
 H        -4.163554         0.707196        -0.616054
 H        -3.017722        -1.749087        -2.934553
 H        -1.288272        -0.999360        -2.978483
 H        -2.680067        -2.127002        -0.633551
 H        -0.802350        -1.794069         0.851596
 H        -0.098784        -1.857513        -0.868807
 H        -1.492576         0.958690         1.035465
 H        -0.465497         2.269107         0.474809
 H        -2.653556         2.006827        -1.172185
 H        -1.083956         1.696891        -1.877860
