19
Iteration:  3655charge 0 multiplicity 1
 O        -3.884411         0.423885        -1.002221
 C        -2.597182         0.010848        -1.468782
 C        -2.550983        -1.195135        -2.497614
 C        -1.925831        -1.342312        -1.001019
 C        -0.442480        -1.238662        -0.739775
 C        -0.023409         0.005335         0.071306
 O         1.027961         0.004039         0.812823
 C        -0.922662         1.284795        -0.278948
 C        -1.715941         1.274839        -1.588517
 H        -3.934968         0.077961        -0.012094
 H        -3.443469        -1.808727        -2.541518
 H        -1.956981        -0.944366        -3.359821
 H        -2.577465        -1.895789        -0.308638
 H        -0.154008        -2.076962        -0.046966
 H         0.138683        -1.442487        -1.627613
 H        -1.520566         1.512532         0.642309
 H        -0.083135         1.985932        -0.245389
 H        -2.256091         2.206402        -1.696753
 H        -0.934445         1.228829        -2.500845
