19
Iteration:  4430charge 0 multiplicity 1
 O        -4.054889         0.155414        -1.680996
 C        -2.664545         0.080156        -1.347798
 C        -1.874547        -0.853092        -2.313065
 C        -2.089849        -1.273839        -0.871380
 C        -0.859969        -1.229284        -0.037181
 C         0.003146        -0.018045        -0.123187
 O         1.275778        -0.171259        -0.181739
 C        -0.662099         1.293177        -0.089798
 C        -2.047296         1.330039        -0.860353
 H        -4.330082        -0.250515        -0.837277
 H        -2.541484        -1.264665        -3.013241
 H        -0.824904        -0.690863        -2.607700
 H        -2.814132        -2.085914        -0.743582
 H        -1.164757        -1.129023         1.016277
 H        -0.334461        -2.215207        -0.014382
 H        -0.889576         1.366663         0.967865
 H        -0.058488         2.105878        -0.382694
 H        -2.843426         1.708228        -0.084527
 H        -1.950090         2.034444        -1.607482
