19
Iteration:  1041
 O        -4.017933         0.405513        -1.249466
 C        -2.554002        -0.030276        -1.395962
 C        -2.443470        -1.044496        -2.492412
 C        -2.123575        -1.292724        -0.908708
 C        -0.610865        -1.276876        -0.495522
 C         0.008520        -0.005069         0.085218
 O         1.114856         0.028100         0.518052
 C        -0.826510         1.290277        -0.114167
 C        -1.529949         1.116259        -1.481446
 H        -4.101849         0.461156        -0.299368
 H        -3.352161        -1.546804        -2.855293
 H        -1.587907        -0.880750        -3.078008
 H        -2.854462        -2.020044        -0.515227
 H        -0.508754        -2.089190         0.222232
 H         0.025331        -1.344789        -1.423938
 H        -1.606904         1.483317         0.688678
 H        -0.161027         2.212335        -0.116089
 H        -2.087656         2.057105        -1.683304
 H        -0.922285         0.928466        -2.378815
