19
Iteration:  4232charge 0 multiplicity 1
 O        -3.984036         0.153970        -1.481134
 C        -2.553585         0.041019        -1.435358
 C        -2.059757        -0.975245        -2.396667
 C        -2.110212        -1.295858        -0.878883
 C        -0.775938        -1.325346        -0.068637
 C        -0.037087        -0.085321        -0.013644
 O         1.173044         0.025340        -0.187722
 C        -0.820049         1.317330         0.105300
 C        -1.776797         1.348182        -1.120005
 H        -4.292210         0.344095        -0.620778
 H        -2.713726        -1.347016        -3.090623
 H        -1.063648        -0.693185        -2.810558
 H        -2.923468        -1.956659        -0.616760
 H        -1.106340        -1.339994         0.950153
 H        -0.297898        -2.263410        -0.370130
 H        -1.449121         1.442474         1.001677
 H        -0.115305         2.145587         0.104319
 H        -2.612751         2.128789        -0.949670
 H        -1.406523         1.647251        -2.014167
