19
Iteration:  2369charge 0 multiplicity 1
 O        -3.968101         0.295028        -1.334879
 C        -2.552890         0.010047        -1.501395
 C        -1.983121        -0.990748        -2.430833
 C        -2.027798        -1.253326        -0.915784
 C        -0.889776        -1.276108        -0.019812
 C        -0.081493        -0.016873         0.009909
 O         1.162268        -0.102117        -0.141365
 C        -0.882991         1.289199         0.071873
 C        -1.776137         1.371598        -1.189701
 H        -4.358101        -0.527095        -1.376672
 H        -2.567412        -1.773975        -3.072474
 H        -1.002878        -0.839020        -2.839431
 H        -2.892129        -1.880245        -0.570765
 H        -1.232099        -1.458070         1.051936
 H        -0.218831        -2.173454        -0.123689
 H        -1.461492         1.361091         0.977016
 H        -0.178290         2.134283        -0.063893
 H        -2.502707         2.159127        -1.369677
 H        -0.924650         1.590197        -2.086177
