19
Iteration:  3033charge 0 multiplicity 1
 O        -4.094820         0.088231        -1.626755
 C        -2.660011         0.093679        -1.355410
 C        -1.919586        -0.902392        -2.389521
 C        -2.047000        -1.171372        -0.846609
 C        -0.836492        -1.285606         0.037348
 C         0.036784        -0.070318        -0.064270
 O         1.277527        -0.229374        -0.080390
 C        -0.695719         1.310756        -0.148208
 C        -1.992995         1.452196        -0.996475
 H        -4.572861         0.408062        -0.753733
 H        -2.526930        -1.433112        -3.092949
 H        -0.974298        -0.482847        -2.877011
 H        -2.632228        -2.086436        -0.690006
 H        -1.255966        -1.416897         1.051112
 H        -0.349472        -2.230697        -0.221211
 H        -1.153064         1.250796         0.852446
 H        -0.127361         2.242117        -0.200233
 H        -2.706223         2.203635        -0.531286
 H        -1.801906         1.947526        -1.879110
