19
Iteration:  2424
 O        -4.164954         0.375963        -1.526393
 C        -2.716822        -0.000547        -1.478787
 C        -2.054473        -1.064114        -2.360597
 C        -2.057117        -1.214631        -0.828406
 C        -0.710579        -1.282411        -0.072831
 C         0.048411        -0.011736        -0.090715
 O         1.276501        -0.112378         0.139957
 C        -0.724611         1.248696        -0.038212
 C        -1.883684         1.362666        -1.204117
 H        -4.478129        -0.519068        -1.339702
 H        -2.617128        -1.748973        -3.055518
 H        -1.067650        -0.738201        -2.698201
 H        -2.815493        -1.994006        -0.655843
 H        -0.676707        -1.683591         0.981014
 H        -0.130523        -1.995744        -0.730982
 H        -1.209298         1.348897         0.925780
 H        -0.067882         2.119395        -0.216062
 H        -2.706363         1.932308        -0.786848
 H        -1.393933         1.892338        -2.156168
