19
Iteration:  3667
 O        -3.899892         0.356094        -0.909617
 C        -2.625446         0.005428        -1.560020
 C        -2.540282        -1.141170        -2.421869
 C        -1.984786        -1.296517        -1.094072
 C        -0.494633        -1.229536        -0.761911
 C        -0.006216         0.031508         0.088772
 O         0.943477         0.061576         0.818559
 C        -0.783541         1.261732        -0.210762
 C        -1.613747         1.165403        -1.637147
 H        -3.794038         0.082217         0.031621
 H        -3.515764        -1.595869        -2.712291
 H        -1.862041        -1.244054        -3.207239
 H        -2.563740        -1.867061        -0.344973
 H        -0.177217        -2.192929        -0.249064
 H         0.122982        -1.131726        -1.651362
 H        -1.601188         1.555293         0.450724
 H        -0.115800         2.156884        -0.214962
 H        -2.227263         2.103922        -1.628778
 H        -0.948729         1.173508        -2.615916
