19
Iteration:  1490charge 0 multiplicity 1
 O        -4.067882         0.184105        -1.681166
 C        -2.662127         0.129793        -1.380759
 C        -1.885822        -0.878802        -2.319691
 C        -2.141259        -1.217316        -0.811956
 C        -0.894199        -1.350002        -0.011132
 C         0.070431        -0.101212        -0.069510
 O         1.260022        -0.195629        -0.050062
 C        -0.698999         1.277887        -0.162763
 C        -1.952191         1.388489        -0.998367
 H        -4.575279         0.125868        -0.945581
 H        -2.487420        -1.241617        -3.210243
 H        -0.907260        -0.531179        -2.402116
 H        -2.933672        -1.988796        -0.567232
 H        -1.008511        -1.469797         1.132249
 H        -0.175629        -2.172513        -0.175624
 H        -1.080327         1.423904         0.944384
 H        -0.046263         2.192947        -0.323452
 H        -2.707388         2.167284        -0.599119
 H        -1.742628         1.960919        -1.919811
