19
Iteration:  2985charge 0 multiplicity 1
 O        -3.975462         0.218459        -1.636827
 C        -2.581658         0.099863        -1.319566
 C        -2.001630        -0.949676        -2.343901
 C        -2.156303        -1.326394        -0.904260
 C        -0.885921        -1.362963        -0.029959
 C         0.034076        -0.096543        -0.177425
 O         1.238838         0.057624        -0.030157
 C        -0.689922         1.220281        -0.056503
 C        -1.954749         1.352422        -0.973491
 H        -4.445668         0.571637        -0.862135
 H        -2.815210        -1.584255        -2.875920
 H        -1.046125        -0.933761        -2.878378
 H        -3.047902        -1.891566        -0.596148
 H        -1.098885        -1.587587         0.994674
 H        -0.234503        -2.167927        -0.404760
 H        -0.893677         1.269690         0.977285
 H         0.077205         1.995860        -0.325312
 H        -2.751181         2.036577        -0.597388
 H        -1.681923         1.909059        -1.911414
