19
Iteration:  1803charge 0 multiplicity 1
 O        -4.033602         0.218801        -1.253540
 C        -2.538968         0.079746        -1.425829
 C        -2.081403        -1.040585        -2.403693
 C        -2.077945        -1.263144        -0.917465
 C        -0.792194        -1.379075        -0.180844
 C        -0.024644        -0.067213        -0.069356
 O         1.122573        -0.043190         0.240921
 C        -0.776972         1.283406        -0.178355
 C        -1.804775         1.380630        -1.334787
 H        -4.140839         1.127891        -1.469789
 H        -2.869305        -1.440724        -3.038579
 H        -1.031996        -0.767305        -2.799488
 H        -2.919856        -1.811745        -0.497632
 H        -1.067423        -1.775699         0.847319
 H        -0.084581        -2.143095        -0.588631
 H        -1.250717         1.419043         0.858424
 H         0.066028         2.027391        -0.325456
 H        -2.354458         2.285552        -1.193588
 H        -1.175123         1.614681        -2.255510
