19
Iteration:  1240charge 0 multiplicity 1
 O        -3.961925         0.365663        -1.587987
 C        -2.533212         0.062936        -1.432544
 C        -1.985185        -0.981522        -2.322220
 C        -2.115439        -1.333947        -0.897398
 C        -0.871204        -1.355128         0.077055
 C        -0.072369        -0.099965        -0.098303
 O         1.152238        -0.022111        -0.207416
 C        -0.837253         1.262919         0.108760
 C        -1.801321         1.273268        -1.092745
 H        -4.438587         0.348416        -0.693679
 H        -2.458499        -1.646290        -3.120142
 H        -1.029822        -0.747264        -2.686073
 H        -2.843151        -2.094685        -0.708315
 H        -1.244884        -1.347276         1.122435
 H         0.062997        -1.974346        -0.129914
 H        -1.358701         1.646063         1.004375
 H        -0.059497         1.958807        -0.163772
 H        -2.480078         2.135157        -0.900953
 H        -1.167714         1.560216        -1.925119
