19
Iteration:  2052charge 0 multiplicity 1
 O        -3.993722         0.305280        -1.372701
 C        -2.622548         0.025457        -1.378338
 C        -2.103617        -1.008843        -2.447103
 C        -2.116740        -1.307799        -0.834682
 C        -0.825053        -1.338841        -0.139113
 C         0.026652        -0.016547        -0.073321
 O         1.213378         0.032241         0.069556
 C        -0.862633         1.264051         0.003364
 C        -1.691902         1.269457        -1.257631
 H        -4.199639         1.050936        -2.081719
 H        -2.972799        -1.529139        -3.014393
 H        -1.215856        -0.743487        -2.922911
 H        -2.839776        -2.135529        -0.659857
 H        -0.934940        -1.499626         0.971345
 H        -0.249957        -2.266202        -0.290928
 H        -1.428201         1.129435         0.912813
 H        -0.260927         2.171646         0.084278
 H        -2.523516         2.027983        -1.397686
 H        -1.098119         1.032902        -2.022116
