19
Iteration:  2773
 O        -4.023130         0.142609        -1.417653
 C        -2.624319         0.080380        -1.372720
 C        -2.201713        -0.953573        -2.446346
 C        -2.136447        -1.228664        -0.858206
 C        -0.719302        -1.437963        -0.183911
 C         0.010652        -0.059118        -0.020368
 O         1.209095         0.034287         0.157190
 C        -0.834653         1.269590        -0.049061
 C        -1.649492         1.393865        -1.274089
 H        -4.368998         0.734582        -0.630998
 H        -3.088741        -1.412960        -3.068837
 H        -1.425905        -0.618956        -3.060418
 H        -2.905093        -1.965128        -0.607350
 H        -0.771530        -1.924542         0.787637
 H        -0.193705        -2.166343        -0.846170
 H        -1.511910         1.220433         0.803490
 H        -0.124885         2.051761         0.088821
 H        -2.225872         2.333675        -1.371662
 H        -1.055681         1.419999        -2.265227
