19
Iteration:  2843charge 0 multiplicity 1
 O        -3.992214         0.313433        -1.553080
 C        -2.581560         0.076930        -1.397286
 C        -2.239961        -1.020275        -2.364037
 C        -2.094135        -1.221687        -0.785718
 C        -0.696285        -1.388352        -0.139834
 C        -0.008160        -0.093740        -0.065946
 O         1.147835         0.145063        -0.045645
 C        -0.913036         1.091689         0.095703
 C        -1.624175         1.308875        -1.212299
 H        -4.459388         0.398466        -0.656958
 H        -2.929652        -1.331632        -3.156225
 H        -1.176320        -0.824085        -2.764510
 H        -2.826033        -1.980334        -0.421840
 H        -0.858196        -1.731423         0.888555
 H        -0.005554        -2.146389        -0.522427
 H        -1.618960         0.947022         0.922363
 H        -0.176183         1.960811         0.156540
 H        -2.227121         2.194685        -1.320674
 H        -0.888958         1.422273        -1.921458
