19
Iteration:  3540charge 0 multiplicity 1
 O        -3.940088         0.324507        -1.158629
 C        -2.641592         0.028733        -1.409161
 C        -2.343712        -1.004156        -2.464973
 C        -2.035896        -1.296755        -0.981397
 C        -0.585690        -1.339792        -0.468214
 C        -0.026119        -0.020539         0.015171
 O         1.118852         0.135809         0.459249
 C        -0.854755         1.121127        -0.116045
 C        -1.713039         1.224652        -1.446952
 H        -4.049644         1.061079        -0.434267
 H        -3.155895        -1.584225        -3.005509
 H        -1.365687        -0.925761        -2.962778
 H        -2.632297        -2.027701        -0.382184
 H        -0.410334        -2.063673         0.323359
 H         0.038061        -1.747435        -1.301765
 H        -1.723512         1.214673         0.610826
 H        -0.184833         2.045247        -0.081816
 H        -2.353227         2.173202        -1.521745
 H        -1.178128         1.213779        -2.374652
