19
Iteration:  3841
 O        -3.667714         0.265541        -0.734290
 C        -2.550832        -0.020363        -1.434201
 C        -2.685263        -1.148216        -2.434893
 C        -1.836368        -1.238846        -1.080145
 C        -0.305263        -1.185847        -0.934027
 C        -0.041638        -0.029109        -0.013366
 O         0.488281        -0.059423         1.055117
 C        -0.748424         1.427140        -0.457196
 C        -1.699230         1.215122        -1.700878
 H        -3.456623         0.703366         0.102139
 H        -3.502237        -1.792701        -2.367243
 H        -2.291586        -0.851021        -3.441154
 H        -2.242776        -2.061916        -0.466593
 H         0.169659        -2.108035        -0.444802
 H         0.141343        -0.940168        -1.916484
 H        -1.118833         1.840326         0.503201
 H         0.150952         1.955030        -0.693832
 H        -2.178771         2.054361        -1.963705
 H        -0.978214         0.941312        -2.537799
