19
Iteration:  1415charge 0 multiplicity 1
 O        -3.977529         0.225938        -1.666493
 C        -2.598638         0.055330        -1.353092
 C        -1.782641        -0.808030        -2.297232
 C        -2.067769        -1.245919        -0.849323
 C        -0.967018        -1.391060         0.170654
 C         0.005786        -0.095518        -0.117383
 O         1.205513        -0.226440        -0.256686
 C        -0.822898         1.339354        -0.101324
 C        -1.967996         1.388544        -0.990606
 H        -4.521117         0.428006        -0.792690
 H        -2.276422        -1.398673        -3.084114
 H        -0.790537        -0.419865        -2.431291
 H        -2.889953        -1.995245        -0.754139
 H        -1.400211        -1.494220         1.190710
 H        -0.364660        -2.359634         0.075352
 H        -1.131461         1.619414         0.960847
 H         0.031146         1.998883        -0.255732
 H        -2.752880         2.094448        -0.573343
 H        -1.696264         1.892034        -1.927583
