19
Iteration:  2757
 O        -4.055927         0.237412        -1.316471
 C        -2.619685         0.095649        -1.483001
 C        -2.195016        -0.870561        -2.464494
 C        -2.023401        -1.256444        -0.929896
 C        -0.716128        -1.412074        -0.144771
 C        -0.033540        -0.070592         0.002626
 O         1.201260         0.011336         0.219711
 C        -0.804486         1.183230        -0.135836
 C        -1.792072         1.324602        -1.351052
 H        -4.279673         0.354608        -0.348777
 H        -2.806493        -1.540968        -2.928589
 H        -1.186317        -0.684848        -2.956554
 H        -2.863139        -1.834169        -0.461385
 H        -0.808166        -1.883236         0.882210
 H         0.093649        -2.009165        -0.609758
 H        -1.371515         1.275825         0.852844
 H        -0.037312         2.019011        -0.186390
 H        -2.308457         2.308726        -1.164619
 H        -1.113724         1.368755        -2.252846
