19
Iteration:   826
 O        -3.861399         0.337587        -0.861252
 C        -2.548387         0.050895        -1.424136
 C        -2.648369        -1.203188        -2.275880
 C        -1.895984        -1.294883        -1.048195
 C        -0.311609        -1.143690        -1.018263
 C        -0.034560         0.006803         0.034457
 O         0.470359        -0.106654         1.111519
 C        -0.597639         1.311366        -0.564400
 C        -1.547251         1.239259        -1.668176
 H        -3.657298         0.830787         0.032056
 H        -3.643494        -1.652741        -2.044689
 H        -2.196395        -1.380054        -3.297124
 H        -2.364212        -1.984842        -0.355125
 H         0.027784        -2.118067        -0.676264
 H         0.096245        -0.641335        -1.904271
 H        -0.902706         1.832193         0.358540
 H         0.314172         1.833371        -0.720391
 H        -2.064246         2.153352        -1.997043
 H        -0.932909         1.109341        -2.575762
