19
Iteration:  2265charge 0 multiplicity 1
 O        -3.922304         0.344953        -1.615143
 C        -2.537716         0.080463        -1.415549
 C        -2.076183        -1.074506        -2.285907
 C        -2.174476        -1.223309        -0.738987
 C        -0.820037        -1.313768        -0.062256
 C         0.000085        -0.007893        -0.111907
 O         1.230053         0.008309        -0.180580
 C        -0.895109         1.154238         0.159452
 C        -1.782962         1.362621        -1.132112
 H        -4.417729        -0.372002        -2.163188
 H        -2.899938        -1.684575        -2.716086
 H        -1.115584        -1.225240        -2.745531
 H        -2.838057        -1.988725        -0.292952
 H        -0.932517        -1.668188         0.983148
 H        -0.171235        -2.040760        -0.582517
 H        -1.621343         1.025373         1.058333
 H        -0.235350         1.998985         0.292658
 H        -2.645178         2.151451        -0.908342
 H        -1.166024         1.709463        -1.957249
