19
Iteration:  3819charge 0 multiplicity 1
 O        -3.784144         0.328822        -0.712096
 C        -2.600097         0.013114        -1.498742
 C        -2.603301        -1.116966        -2.380218
 C        -1.757850        -1.363067        -1.105340
 C        -0.328302        -1.201962        -1.001193
 C        -0.096164         0.010831         0.037270
 O         0.503242         0.001222         1.072486
 C        -0.674956         1.266851        -0.559175
 C        -1.675227         1.231648        -1.640876
 H        -3.567898         0.671053         0.192221
 H        -3.529549        -1.591626        -2.417196
 H        -1.888168        -1.128244        -3.250605
 H        -2.255289        -2.048344        -0.349362
 H         0.282057        -2.047848        -0.491339
 H         0.080279        -0.958063        -2.006185
 H        -1.259761         1.752876         0.266664
 H         0.254433         1.819541        -0.565426
 H        -2.127147         2.096148        -1.421192
 H        -1.247831         1.346049        -2.696875
