19
Iteration:    74
 O        -4.008987         0.253284        -1.437453
 C        -2.683530         0.107091        -1.406595
 C        -1.835236        -0.875876        -2.253604
 C        -2.112043        -1.227035        -0.799712
 C        -0.885692        -1.349148         0.093974
 C         0.025217        -0.108003        -0.125744
 O         1.226076        -0.124764        -0.003068
 C        -0.788076         1.188130        -0.249821
 C        -1.934924         1.401965        -1.348873
 H        -4.464470        -0.042082        -0.608199
 H        -2.132628        -1.591958        -3.046130
 H        -0.976478        -0.333068        -2.497168
 H        -2.875040        -1.976698        -0.776134
 H        -1.180376        -1.274270         1.186143
 H        -0.293214        -2.246949         0.034124
 H        -1.272632         1.259177         0.772244
 H        -0.075560         2.039318        -0.392824
 H        -2.699742         2.205674        -0.995838
 H        -1.493044         1.536074        -2.351110
