19
Iteration:   352
 O        -4.037066         0.335549        -1.508009
 C        -2.614459        -0.032697        -1.417233
 C        -2.003301        -1.028947        -2.299956
 C        -2.190172        -1.291303        -0.736918
 C        -0.803083        -1.336788        -0.011545
 C        -0.075536        -0.024639        -0.056149
 O         1.139473        -0.033910        -0.156668
 C        -0.782554         1.350765         0.014698
 C        -1.693097         1.198757        -1.241392
 H        -4.003690         1.210934        -1.504131
 H        -2.543287        -1.591218        -3.011241
 H        -0.934572        -0.721705        -2.366054
 H        -2.887692        -1.989473        -0.351855
 H        -1.015299        -1.440635         1.047697
 H        -0.069553        -2.068399        -0.400853
 H        -1.205639         1.650141         1.018652
 H        -0.053396         2.167528        -0.209022
 H        -2.441031         2.043388        -1.304865
 H        -1.109269         1.165021        -2.108999
