19
Iteration:  2613charge 0 multiplicity 1
 O        -3.932415         0.364843        -1.330936
 C        -2.623615         0.098434        -1.466379
 C        -2.316030        -1.095259        -2.412593
 C        -2.074498        -1.185970        -0.895293
 C        -0.682305        -1.345421        -0.284367
 C        -0.008491        -0.048378         0.130075
 O         1.170692         0.134861         0.112392
 C        -0.878784         1.164164         0.058401
 C        -1.633044         1.197549        -1.336636
 H        -4.443817        -0.252651        -1.981100
 H        -3.242660        -1.507646        -2.890821
 H        -1.467736        -0.932019        -2.951951
 H        -2.775601        -1.814689        -0.318452
 H        -0.827084        -2.034631         0.606125
 H        -0.027315        -1.996934        -0.870889
 H        -1.718273         1.093718         0.787287
 H        -0.252803         1.995275         0.253312
 H        -2.162955         2.194530        -1.251490
 H        -0.851687         1.132835        -2.193218
