19
Iteration:  4314charge 0 multiplicity 1
 O        -3.936497         0.128686        -1.742363
 C        -2.472654         0.101810        -1.396616
 C        -1.886490        -0.944587        -2.230400
 C        -2.137433        -1.276463        -0.781780
 C        -0.843975        -1.375372         0.078001
 C        -0.106200        -0.088053        -0.051201
 O         1.085420         0.041049        -0.540516
 C        -0.781073         1.219269         0.256497
 C        -1.890260         1.455383        -0.984914
 H        -4.513626         0.223550        -0.935004
 H        -2.580291        -1.225027        -3.041359
 H        -0.747301        -0.944570        -2.420322
 H        -2.995602        -1.825426        -0.393146
 H        -1.065591        -1.695482         1.214517
 H        -0.222723        -2.243673        -0.208557
 H        -1.277254         1.286879         1.253383
 H         0.005108         2.013540         0.048156
 H        -2.668234         1.935346        -0.532339
 H        -1.461983         1.933705        -1.966490
