19
Iteration:  1180charge 0 multiplicity 1
 O        -4.064516         0.272378        -1.532855
 C        -2.551705         0.136778        -1.450905
 C        -2.148698        -1.128981        -2.412217
 C        -2.129652        -1.159136        -0.831848
 C        -0.744896        -1.329174        -0.144752
 C         0.044800        -0.121913        -0.050597
 O         1.241296         0.002298         0.093189
 C        -0.861764         1.117139         0.034655
 C        -1.735083         1.443072        -1.236596
 H        -4.285755         0.674350        -0.587036
 H        -3.014700        -1.612215        -2.789921
 H        -1.166259        -1.088442        -2.937286
 H        -2.930340        -1.829874        -0.458993
 H        -0.891604        -1.677796         0.895014
 H        -0.099619        -2.069002        -0.515811
 H        -1.559107         1.061053         0.834142
 H        -0.216013         2.010422         0.180171
 H        -2.482290         2.227471        -1.104845
 H        -1.217768         1.696265        -2.181438
