19
Iteration:  2141charge 0 multiplicity 1
 O        -4.086759         0.273129        -1.299694
 C        -2.660126         0.000395        -1.416096
 C        -2.020149        -0.952148        -2.397586
 C        -2.056764        -1.273475        -0.980970
 C        -0.850702        -1.323690        -0.065787
 C         0.091885        -0.016139        -0.050615
 O         1.267985        -0.134072         0.225932
 C        -0.723155         1.356563        -0.236222
 C        -1.955745         1.286455        -1.252870
 H        -4.331863         0.711816        -2.251407
 H        -2.551071        -1.631005        -3.008183
 H        -0.989134        -0.466659        -2.643880
 H        -2.674642        -2.111871        -0.752522
 H        -1.153399        -1.564149         0.985402
 H        -0.326194        -2.213205        -0.492065
 H        -1.218492         1.505746         0.789630
 H        -0.036904         2.217477        -0.530850
 H        -2.679920         2.116711        -0.783681
 H        -1.403337         1.548095        -2.117787
