19
Iteration:  1177charge 0 multiplicity 1
 O        -4.044394         0.287683        -1.524102
 C        -2.576024         0.127543        -1.453851
 C        -2.142799        -1.122483        -2.393774
 C        -2.126500        -1.186306        -0.850922
 C        -0.771929        -1.330366        -0.146859
 C         0.060443        -0.106755        -0.054941
 O         1.235761         0.012871         0.105317
 C        -0.847241         1.132494         0.031656
 C        -1.727480         1.434263        -1.243190
 H        -4.286012         0.651300        -0.611492
 H        -3.055798        -1.645844        -2.846480
 H        -1.222549        -1.157562        -2.933135
 H        -2.886397        -1.851869        -0.469489
 H        -0.814920        -1.756803         0.864540
 H        -0.184137        -2.147216        -0.592656
 H        -1.574094         1.057557         0.916708
 H        -0.322336         2.055632         0.145928
 H        -2.448195         2.219464        -1.026037
 H        -1.246583         1.668766        -2.211531
