19
Iteration:  4678charge 0 multiplicity 1
 O        -4.031579         0.113742        -1.143991
 C        -2.620843        -0.012767        -1.333513
 C        -2.286475        -0.801074        -2.597499
 C        -1.968265        -1.308702        -1.165534
 C        -0.609229        -1.292790        -0.492566
 C         0.045761         0.026608        -0.076787
 O         0.812183        -0.016313         0.805856
 C        -0.367831         1.206104        -0.824192
 C        -1.911581         1.297139        -0.824485
 H        -4.201394         1.002201        -0.779210
 H        -3.133908        -1.170900        -2.997108
 H        -1.524115        -0.685727        -3.307964
 H        -2.580305        -2.034664        -0.624467
 H        -0.744147        -1.890485         0.398576
 H         0.071065        -1.933299        -1.016522
 H        -0.009509         2.181233        -0.199890
 H         0.197465         1.167717        -1.829518
 H        -2.281286         1.380311         0.212331
 H        -2.236822         2.321702        -1.442018
