19
Iteration:  1325charge 0 multiplicity 1
 O        -3.900879         0.318529        -1.788767
 C        -2.579954         0.034627        -1.427495
 C        -1.863947        -0.935599        -2.302994
 C        -2.098836        -1.338871        -0.696728
 C        -0.899707        -1.351172         0.189063
 C        -0.046077        -0.088447        -0.008764
 O         1.134782        -0.109160        -0.421122
 C        -0.778934         1.249464         0.053413
 C        -1.951455         1.383645        -0.945666
 H        -4.229967         0.765635        -0.926002
 H        -2.594723        -1.225083        -3.087237
 H        -0.843536        -0.791531        -2.598542
 H        -2.785874        -2.151769        -0.636562
 H        -1.285647        -1.495565         1.247208
 H        -0.180960        -2.142811        -0.026988
 H        -1.352923         1.429984         1.001500
 H        -0.009173         2.062524        -0.141643
 H        -2.730791         2.206865        -0.710001
 H        -1.661367         1.819948        -1.918802
