19
Iteration:  4856charge 0 multiplicity 1
 O        -4.001428         0.138971        -1.118107
 C        -2.647193         0.053158        -1.346720
 C        -2.290464        -0.768864        -2.547477
 C        -2.024276        -1.280592        -1.112678
 C        -0.567945        -1.328809        -0.634796
 C         0.058982        -0.036720        -0.082764
 O         0.825549        -0.040662         0.943175
 C        -0.386887         1.160184        -0.786446
 C        -1.938403         1.309292        -0.898864
 H        -4.322920         0.980399        -0.752629
 H        -3.081390        -1.135927        -3.121144
 H        -1.396904        -0.629651        -3.205895
 H        -2.626329        -2.076247        -0.767984
 H        -0.383688        -2.074788         0.107658
 H         0.132814        -1.497886        -1.548850
 H         0.242319         2.111128        -0.612257
 H        -0.157209         1.091809        -1.942720
 H        -2.251620         1.388822         0.115795
 H        -2.362623         2.248336        -1.314327
