19
Iteration:  2976
 O        -3.981512         0.189422        -1.635345
 C        -2.581656         0.050743        -1.447240
 C        -2.076484        -0.935021        -2.308571
 C        -2.119852        -1.303597        -0.828799
 C        -0.867037        -1.408216        -0.026882
 C         0.061651        -0.058932        -0.149995
 O         1.276797        -0.035229        -0.039758
 C        -0.774655         1.274216        -0.070087
 C        -1.901302         1.454476        -0.994977
 H        -4.475238         0.375794        -0.818927
 H        -2.836316        -1.329753        -3.014182
 H        -0.996188        -0.890268        -2.708995
 H        -2.912743        -1.994027        -0.626821
 H        -1.015329        -1.628496         1.028824
 H        -0.306079        -2.195032        -0.518133
 H        -1.049512         1.309408         0.966934
 H        -0.168745         2.242753        -0.101198
 H        -2.746763         2.024093        -0.488553
 H        -1.660677         2.009361        -1.814002
