19
Iteration:  3079charge 0 multiplicity 1
 O        -4.031075         0.215264        -1.595894
 C        -2.643556         0.028487        -1.358651
 C        -1.852926        -0.853355        -2.299619
 C        -2.000180        -1.344453        -0.919703
 C        -0.921270        -1.277045         0.074875
 C        -0.007110        -0.052281        -0.081103
 O         1.173215        -0.173025        -0.183540
 C        -0.686929         1.309629        -0.089847
 C        -1.964272         1.428386        -1.028714
 H        -4.555408        -0.229395        -0.889610
 H        -2.415356        -1.467685        -3.081962
 H        -0.907935        -0.546856        -2.551570
 H        -2.902464        -2.023181        -0.729712
 H        -1.326227        -1.332509         1.123406
 H        -0.246031        -2.167431        -0.088059
 H        -1.029666         1.575906         0.964040
 H         0.143066         1.941774        -0.357828
 H        -2.765897         1.850603        -0.425589
 H        -1.912483         2.125206        -1.877173
