19
Iteration:  2211charge 0 multiplicity 1
 O        -4.053180         0.188865        -1.365921
 C        -2.637287         0.027230        -1.458898
 C        -1.987510        -0.978736        -2.419433
 C        -2.071252        -1.215732        -0.863032
 C        -0.844507        -1.258380        -0.018710
 C        -0.027234         0.021569        -0.015357
 O         1.217734        -0.155306        -0.005954
 C        -0.769745         1.307169        -0.070073
 C        -1.782259         1.310134        -1.209086
 H        -4.474506         0.708730        -2.133161
 H        -2.592119        -1.675529        -3.100949
 H        -1.104393        -0.568047        -2.827726
 H        -2.798011        -1.914253        -0.389944
 H        -1.277885        -1.425767         0.963491
 H        -0.144789        -2.025133        -0.343579
 H        -1.391637         1.290268         0.798999
 H        -0.168220         2.184613        -0.101609
 H        -2.551874         2.098072        -0.935696
 H        -1.251794         1.502420        -2.120814
