19
Iteration:  2605
 O        -3.967518         0.375284        -1.300396
 C        -2.588381         0.047630        -1.478522
 C        -2.214997        -1.073686        -2.369140
 C        -2.120723        -1.196462        -0.865248
 C        -0.717627        -1.397943        -0.286164
 C        -0.029888        -0.031784         0.055882
 O         1.209379         0.128984         0.118614
 C        -0.930596         1.143749         0.051740
 C        -1.648676         1.235710        -1.315824
 H        -4.568329        -0.064100        -2.025627
 H        -3.106865        -1.498569        -2.791306
 H        -1.486621        -0.904020        -3.198962
 H        -2.977225        -1.751479        -0.436947
 H        -0.657241        -1.914800         0.697819
 H         0.034965        -1.836800        -0.956818
 H        -1.702260         1.000136         0.780304
 H        -0.303786         2.041130         0.267693
 H        -1.939223         2.305466        -1.679769
 H        -0.713652         1.118371        -2.045368
