19
Iteration:   720charge 0 multiplicity 1
 O        -3.809698         0.399514        -0.779948
 C        -2.626582         0.023902        -1.331967
 C        -2.518730        -1.165375        -2.492440
 C        -1.949243        -1.364139        -1.132872
 C        -0.453630        -1.241879        -0.818384
 C        -0.082939         0.050530         0.045069
 O         0.684290        -0.075603         1.014905
 C        -0.688064         1.396976        -0.509952
 C        -1.626315         1.206823        -1.721743
 H        -3.812124         0.842685         0.205816
 H        -3.454056        -1.643148        -2.694250
 H        -1.719183        -1.139369        -3.330705
 H        -2.449907        -2.076997        -0.483790
 H        -0.092250        -2.105482        -0.177960
 H         0.285944        -1.422297        -1.612873
 H        -1.188749         1.880308         0.386840
 H         0.287008         1.880270        -0.786102
 H        -2.093370         2.142098        -1.929703
 H        -0.992747         0.859740        -2.541761
