19
Iteration:  2632
 O        -3.985549         0.439505        -1.329312
 C        -2.525728         0.002851        -1.504087
 C        -2.331518        -1.120379        -2.466539
 C        -2.087315        -1.337403        -0.932444
 C        -0.686047        -1.367055        -0.260568
 C         0.028430         0.029487         0.033244
 O         1.220117         0.055544         0.186579
 C        -0.905525         1.258698         0.062204
 C        -1.681006         1.288059        -1.289107
 H        -4.608114        -0.302034        -1.680762
 H        -3.328760        -1.657245        -2.687800
 H        -1.532565        -1.162630        -3.229674
 H        -2.910396        -1.853253        -0.438195
 H        -0.632673        -1.790017         0.738958
 H         0.149840        -1.911039        -0.735371
 H        -1.651272         1.245738         0.928192
 H        -0.197397         2.085046         0.103411
 H        -2.373937         2.071271        -1.253765
 H        -0.960132         1.593580        -1.966140
