19
Iteration:  2494charge 0 multiplicity 1
 O        -4.055754         0.310428        -1.214095
 C        -2.669802         0.032311        -1.462779
 C        -2.058289        -1.021436        -2.435205
 C        -2.037685        -1.314841        -0.960350
 C        -0.783891        -1.289291        -0.151830
 C         0.052147        -0.047453         0.005756
 O         1.243313        -0.064742         0.205634
 C        -0.836207         1.246275        -0.112856
 C        -1.824319         1.397920        -1.345914
 H        -4.474723         0.399554        -2.037167
 H        -2.729371        -1.661310        -3.023684
 H        -1.100163        -0.785047        -2.783248
 H        -2.796612        -2.051927        -0.606414
 H        -0.990298        -1.709762         0.870150
 H        -0.033762        -2.023701        -0.449968
 H        -1.391147         1.393310         0.813928
 H        -0.082431         2.003026        -0.276527
 H        -2.686116         2.147697        -1.179019
 H        -1.379979         1.595997        -2.418844
