19
Iteration:  3887
 O        -3.772981         0.355658        -0.767671
 C        -2.573230        -0.016975        -1.447161
 C        -2.582478        -1.055991        -2.370461
 C        -1.842415        -1.309511        -1.049712
 C        -0.331515        -1.185238        -1.008346
 C        -0.110821         0.031751        -0.009714
 O         0.574108        -0.019077         1.071206
 C        -0.731756         1.312805        -0.464381
 C        -1.642254         1.148074        -1.673687
 H        -3.608271        -0.017312         0.173161
 H        -3.373078        -1.900579        -2.324266
 H        -2.087350        -1.010275        -3.319723
 H        -2.243574        -2.028929        -0.362598
 H         0.124088        -2.149150        -0.718505
 H        -0.076087        -0.908986        -2.055997
 H        -1.283504         1.778578         0.396163
 H         0.091624         2.040509        -0.735006
 H        -2.155834         2.064746        -1.785545
 H        -1.012740         0.932665        -2.591792
