19
Iteration:  1741charge 0 multiplicity 1
 O        -3.988946         0.304221        -1.374989
 C        -2.576935         0.023408        -1.543663
 C        -2.309205        -1.094027        -2.402869
 C        -2.074258        -1.234699        -0.925066
 C        -0.792866        -1.363679        -0.091360
 C         0.006932         0.001724        -0.000399
 O         1.187536         0.057410         0.024271
 C        -0.812632         1.191560         0.195109
 C        -1.586690         1.356286        -1.299104
 H        -4.294790         0.180617        -2.219069
 H        -2.990886        -1.725915        -2.809353
 H        -1.582889        -1.041111        -3.161322
 H        -2.914612        -1.782817        -0.505338
 H        -1.066049        -1.607572         0.901334
 H        -0.022419        -2.053735        -0.431092
 H        -1.577953         1.058161         0.919498
 H        -0.352801         2.176642         0.328809
 H        -2.317670         2.206301        -1.324301
 H        -0.867288         1.521489        -2.073890
