19
Iteration:  1167
 O        -3.949194         0.346988        -1.498025
 C        -2.646516         0.057487        -1.504610
 C        -2.182351        -1.057885        -2.308811
 C        -2.125921        -1.292336        -0.890271
 C        -0.813770        -1.409946        -0.196275
 C         0.028870         0.014156        -0.045230
 O         1.269661         0.027852         0.145275
 C        -0.827849         1.244153        -0.016494
 C        -1.754792         1.299559        -1.234489
 H        -4.301061         0.563707        -0.647148
 H        -2.965170        -1.589142        -2.934982
 H        -1.274485        -1.090284        -2.877135
 H        -2.910909        -1.883042        -0.432670
 H        -0.899051        -1.769385         0.827960
 H        -0.337827        -2.092916        -0.837202
 H        -1.446296         0.974309         0.884216
 H        -0.244478         2.106625         0.244098
 H        -2.321166         2.171046        -0.951240
 H        -1.116224         1.633945        -2.083231
