19
Iteration:   158charge 0 multiplicity 1
 O        -4.004119         0.332830        -1.700658
 C        -2.647820         0.030534        -1.391367
 C        -2.004862        -1.049627        -2.205484
 C        -2.152766        -1.199306        -0.691094
 C        -0.850070        -1.380808         0.007574
 C         0.090306        -0.151198        -0.150140
 O         1.291386         0.036450        -0.063656
 C        -0.781646         1.204934        -0.128725
 C        -1.942474         1.294446        -1.143596
 H        -4.320700         1.172210        -1.088599
 H        -2.617525        -1.741532        -2.888597
 H        -1.021341        -0.772382        -2.647972
 H        -2.790498        -1.980888        -0.281275
 H        -1.081781        -1.268895         1.066514
 H        -0.374993        -2.381393        -0.135604
 H        -1.130835         1.388662         0.876493
 H        -0.060950         2.014672        -0.344762
 H        -2.560377         1.997689        -0.724211
 H        -1.723865         1.950596        -1.985196
