19
Iteration:  3856
 O        -3.806202         0.264487        -0.653360
 C        -2.592479         0.000637        -1.467797
 C        -2.619144        -1.097800        -2.402692
 C        -1.823873        -1.308949        -1.131962
 C        -0.310323        -1.144672        -0.972092
 C        -0.061376         0.165572        -0.001536
 O         0.495814        -0.140368         1.035654
 C        -0.711705         1.402081        -0.456726
 C        -1.540266         1.125669        -1.693505
 H        -3.404743         0.583624         0.123840
 H        -3.575318        -1.743291        -2.450840
 H        -2.150345        -1.194783        -3.354842
 H        -2.321779        -1.901860        -0.359968
 H         0.012554        -1.967345        -0.366152
 H         0.227552        -1.259033        -1.928935
 H        -1.414264         1.831897         0.294073
 H        -0.048958         2.306911        -0.699764
 H        -2.122289         2.060032        -2.055467
 H        -0.907599         0.864413        -2.550668
