19
Iteration:  4508charge 0 multiplicity 1
 O        -4.087485        -0.021433        -1.514978
 C        -2.650501         0.101564        -1.323133
 C        -1.844517        -0.674846        -2.335884
 C        -2.077792        -1.245806        -0.982907
 C        -0.891056        -1.329771        -0.115355
 C        -0.001609        -0.073402        -0.170768
 O         1.230040        -0.190487         0.233363
 C        -0.532830         1.366020        -0.561915
 C        -2.100408         1.363185        -0.749663
 H        -4.554617         0.443310        -0.877422
 H        -2.539587        -1.140887        -3.116123
 H        -0.872130        -0.462114        -2.939223
 H        -2.870596        -1.976340        -0.803887
 H        -1.243067        -1.602752         0.940375
 H        -0.174334        -2.209119        -0.297403
 H        -0.265842         2.183349         0.041025
 H        -0.202416         1.617179        -1.607847
 H        -2.550436         1.415551         0.360422
 H        -2.384225         2.304150        -1.118735
