19
Iteration:  2297charge 0 multiplicity 1
 O        -3.927220         0.399659        -1.590791
 C        -2.557435         0.042104        -1.472701
 C        -2.048203        -1.083663        -2.295185
 C        -2.155051        -1.282847        -0.785943
 C        -0.823837        -1.323271         0.019459
 C        -0.015946         0.015569        -0.018254
 O         1.153636         0.027519        -0.294559
 C        -0.890977         1.197087         0.225734
 C        -1.702415         1.306398        -1.169222
 H        -4.386318        -0.384231        -1.595301
 H        -2.627600        -1.755665        -2.956186
 H        -1.038097        -1.109994        -2.645326
 H        -2.995027        -1.949321        -0.452044
 H        -0.989103        -1.922930         0.917869
 H        -0.117913        -1.980171        -0.495860
 H        -1.691379         1.101117         1.114630
 H        -0.296781         2.101231         0.365371
 H        -2.504626         2.125709        -0.997422
 H        -1.207729         1.775429        -1.950993
