19
Iteration:   322charge 0 multiplicity 1
 O        -4.023922         0.324930        -1.715583
 C        -2.586092         0.032595        -1.406841
 C        -2.067860        -1.125791        -2.235648
 C        -2.146823        -1.223993        -0.731532
 C        -0.817082        -1.316130         0.066756
 C         0.050966        -0.038720        -0.075621
 O         1.266629        -0.029698        -0.184157
 C        -0.797258         1.243077        -0.008352
 C        -1.815646         1.304833        -1.118059
 H        -4.186339         1.286299        -1.247777
 H        -3.000838        -1.504898        -2.698567
 H        -1.203836        -1.317785        -2.886719
 H        -2.788607        -1.998296        -0.402351
 H        -1.166560        -1.350378         1.102528
 H        -0.116168        -2.170035        -0.142115
 H        -1.365071         1.114201         0.888780
 H        -0.222120         2.193693         0.018299
 H        -2.659568         1.983212        -0.842789
 H        -1.571707         1.806012        -2.099016
