19
Iteration:  2158
 O        -4.050094         0.204871        -1.266970
 C        -2.645080         0.046352        -1.475924
 C        -1.996622        -0.927324        -2.501371
 C        -2.064665        -1.271584        -0.946816
 C        -0.820413        -1.291878         0.018308
 C        -0.008500        -0.056628         0.034905
 O         1.233567        -0.092173         0.154508
 C        -0.722496         1.230496        -0.215992
 C        -1.883152         1.330827        -1.263688
 H        -4.577594         1.008719        -1.717303
 H        -2.585053        -1.557829        -3.256168
 H        -1.137665        -0.667663        -3.036623
 H        -2.857984        -2.022895        -0.722535
 H        -1.262096        -1.313550         1.022736
 H        -0.082459        -2.084593        -0.114582
 H        -1.119322         1.609199         0.733439
 H         0.055467         1.920101        -0.458693
 H        -2.611548         1.987822        -0.974868
 H        -1.625468         1.862941        -2.257097
