19
Iteration:  2606
 O        -3.961393         0.371818        -1.306377
 C        -2.595055         0.051862        -1.475017
 C        -2.229369        -1.080105        -2.370072
 C        -2.117379        -1.189186        -0.870338
 C        -0.715891        -1.393551        -0.287139
 C        -0.026552        -0.033734         0.070477
 O         1.203074         0.131250         0.116680
 C        -0.921097         1.143799         0.050975
 C        -1.650379         1.229434        -1.320511
 H        -4.547874        -0.078170        -2.005137
 H        -3.117481        -1.475288        -2.795030
 H        -1.459006        -0.885311        -3.218940
 H        -2.946659        -1.751351        -0.421941
 H        -0.664545        -1.921457         0.675608
 H         0.044404        -1.862517        -0.941531
 H        -1.710302         0.999503         0.764044
 H        -0.270764         2.049201         0.269110
 H        -1.939788         2.293540        -1.630857
 H        -0.747748         1.130674        -2.026007
