19
Iteration:   978
 O        -3.890815         0.454315        -1.106459
 C        -2.561003         0.010519        -1.455587
 C        -2.501201        -1.176743        -2.366928
 C        -2.006568        -1.375736        -0.938928
 C        -0.494451        -1.254207        -0.707470
 C        -0.029072        -0.044622         0.000942
 O         0.898979         0.020785         0.759405
 C        -0.778159         1.265514        -0.213990
 C        -1.632634         1.219239        -1.581516
 H        -3.855015         1.129903        -0.375509
 H        -3.496471        -1.585135        -2.723108
 H        -1.899318        -1.281114        -3.297835
 H        -2.627056        -1.895152        -0.157761
 H         0.105115        -2.081941        -0.254738
 H        -0.140097        -1.232970        -1.774425
 H        -1.397921         1.298233         0.700408
 H        -0.193383         2.200778        -0.193775
 H        -2.291739         2.157456        -1.562298
 H        -0.867583         1.240317        -2.414078
