19
Iteration:  2332
 O        -3.958049         0.411971        -1.421726
 C        -2.536883         0.034423        -1.462328
 C        -2.004171        -0.960248        -2.364347
 C        -2.009118        -1.341832        -0.872303
 C        -0.872441        -1.352573         0.104613
 C        -0.082350        -0.062662        -0.056781
 O         1.149472         0.037320        -0.254954
 C        -0.977913         1.189781         0.105530
 C        -1.698679         1.307838        -1.255592
 H        -4.433868        -0.391182        -1.349114
 H        -2.529435        -1.627005        -2.970931
 H        -0.891709        -0.797023        -2.651347
 H        -2.907882        -1.968783        -0.595235
 H        -1.320072        -1.309958         1.117278
 H        -0.239399        -2.222629        -0.105523
 H        -1.535220         1.054977         1.111655
 H        -0.247108         2.022001         0.254106
 H        -2.462108         2.123908        -1.184500
 H        -0.878990         1.440909        -1.998380
