19
Iteration:   763charge 0 multiplicity 1
 O        -3.798551         0.346785        -0.768894
 C        -2.513678         0.014308        -1.474621
 C        -2.732951        -1.096400        -2.358753
 C        -1.908065        -1.260235        -1.110189
 C        -0.331577        -1.208303        -0.892460
 C        -0.051894        -0.050996         0.031925
 O         0.568338         0.018108         1.117913
 C        -0.668153         1.285747        -0.497914
 C        -1.545191         1.184277        -1.785188
 H        -3.568474         0.259195         0.237940
 H        -3.685190        -1.583475        -2.590195
 H        -2.165143        -1.063592        -3.345743
 H        -2.434696        -1.811138        -0.319402
 H        -0.125305        -2.257123        -0.498662
 H         0.299888        -1.108817        -1.788640
 H        -1.335116         1.770265         0.288124
 H         0.179155         1.983568        -0.641517
 H        -2.122289         2.014707        -2.038685
 H        -0.920314         0.821726        -2.589816
