19
Iteration:  1552
 O        -4.028911         0.139697        -1.614145
 C        -2.625082         0.054432        -1.479119
 C        -2.074135        -0.922631        -2.397718
 C        -2.080418        -1.234735        -0.893131
 C        -0.899649        -1.267023        -0.011740
 C         0.053713        -0.015410        -0.046784
 O         1.275159        -0.199679        -0.002697
 C        -0.706097         1.299801        -0.041762
 C        -1.883528         1.377914        -0.989944
 H        -4.568855         0.653738        -0.978568
 H        -2.888104        -1.434785        -3.038746
 H        -1.188775        -0.729496        -2.997223
 H        -2.773233        -2.064643        -0.706147
 H        -1.247678        -1.379607         0.997506
 H        -0.240195        -2.117385        -0.270352
 H        -1.083119         1.761574         0.927543
 H         0.104451         2.048179        -0.285068
 H        -2.505220         2.009456        -0.416678
 H        -1.524454         1.970682        -1.851179
