19
Iteration:  1008charge 0 multiplicity 1
 O        -3.987472         0.370186        -1.209146
 C        -2.544901         0.071339        -1.503713
 C        -2.540100        -1.242493        -2.401855
 C        -1.991445        -1.101928        -0.909195
 C        -0.481968        -1.286352        -0.634832
 C         0.024574        -0.078258         0.027608
 O         1.068273        -0.040548         0.686930
 C        -0.878593         1.252196        -0.120268
 C        -1.642948         1.271093        -1.584199
 H        -3.887758         0.805538        -0.229613
 H        -3.558849        -1.707245        -2.548354
 H        -1.832060        -1.279488        -3.143485
 H        -2.703403        -1.538645        -0.190665
 H        -0.281686        -2.174636        -0.036023
 H         0.137636        -1.742037        -1.414364
 H        -1.647630         1.201711         0.688673
 H        -0.312441         2.224243        -0.046408
 H        -2.205819         2.236445        -1.610085
 H        -0.901325         1.354107        -2.375162
