19
Iteration:  1012charge 0 multiplicity 1
 O        -4.001080         0.360738        -1.209059
 C        -2.550443         0.089170        -1.516855
 C        -2.537365        -1.245260        -2.394509
 C        -2.008800        -1.122495        -0.918876
 C        -0.505895        -1.278856        -0.615903
 C         0.037154        -0.059022        -0.004724
 O         1.085820        -0.027908         0.683326
 C        -0.865510         1.247071        -0.090006
 C        -1.635030         1.253252        -1.551960
 H        -3.873916         0.649407        -0.378351
 H        -3.517569        -1.623442        -2.506349
 H        -1.705726        -1.178854        -3.200892
 H        -2.804300        -1.497194        -0.238296
 H        -0.370621        -2.186924         0.015367
 H         0.120623        -1.664906        -1.454097
 H        -1.678216         1.274611         0.643628
 H        -0.265329         2.135566         0.006341
 H        -2.058541         2.279536        -1.637784
 H        -0.977070         1.162222        -2.499858
