19
Iteration:  3635
 O        -3.928028         0.439386        -1.087763
 C        -2.625169         0.000846        -1.450093
 C        -2.466651        -1.116130        -2.385721
 C        -1.885055        -1.280050        -1.010614
 C        -0.452643        -1.296336        -0.642729
 C        -0.012746         0.050248        -0.096663
 O         0.945384        -0.011375         0.707301
 C        -0.815370         1.320825        -0.192461
 C        -1.733805         1.125645        -1.505190
 H        -4.082690         0.056471        -0.246726
 H        -3.465925        -1.589025        -2.519050
 H        -1.719855        -1.165093        -3.121639
 H        -2.583670        -1.885371        -0.419114
 H        -0.177615        -2.229400        -0.024356
 H         0.277830        -1.332675        -1.456385
 H        -1.567265         1.293126         0.573112
 H        -0.197080         2.249139        -0.103499
 H        -2.326125         2.106730        -1.508886
 H        -1.105812         1.274410        -2.458028
