19
Iteration:  1381charge 0 multiplicity 1
 O        -3.963806         0.098509        -1.810532
 C        -2.621415         0.102595        -1.360985
 C        -1.878496        -0.874328        -2.257667
 C        -2.162214        -1.164693        -0.771226
 C        -1.009178        -1.361253         0.115391
 C         0.033445        -0.068100        -0.107884
 O         1.247612        -0.213945        -0.340997
 C        -0.722003         1.286770         0.064502
 C        -1.906052         1.475931        -0.916061
 H        -4.608433         0.124182        -1.132272
 H        -2.371254        -1.400957        -2.998298
 H        -0.813613        -0.685906        -2.552501
 H        -2.968034        -1.886613        -0.578700
 H        -1.334901        -1.243984         1.172655
 H        -0.379507        -2.208971        -0.122329
 H        -1.141229         1.488812         1.114422
 H        -0.014288         2.137691        -0.253223
 H        -2.714421         2.099869        -0.391700
 H        -1.561327         1.927723        -1.852327
