19
Iteration:  4179charge 0 multiplicity 1
 O        -4.078275         0.264647        -1.388689
 C        -2.685702         0.054951        -1.394884
 C        -2.196466        -1.015985        -2.403464
 C        -2.060319        -1.268317        -0.974256
 C        -0.687302        -1.324885        -0.250362
 C         0.056264        -0.059705        -0.020663
 O         1.348518         0.102102         0.219044
 C        -0.798082         1.153903        -0.108272
 C        -1.846633         1.322259        -1.233916
 H        -4.474953         0.161781        -0.539281
 H        -2.920533        -1.547089        -2.912253
 H        -1.291256        -0.731389        -3.039643
 H        -2.867581        -1.907139        -0.613273
 H        -1.126118        -1.645365         0.771928
 H        -0.219581        -2.148190        -0.758771
 H        -1.287177         1.079639         0.956184
 H        -0.227717         2.046051        -0.106122
 H        -2.496185         2.206255        -1.012402
 H        -1.348682         1.554911        -2.200453
