19
Iteration:  1011charge 0 multiplicity 1
 O        -3.999536         0.363596        -1.208827
 C        -2.545616         0.084405        -1.510189
 C        -2.539255        -1.247278        -2.398903
 C        -2.003087        -1.113460        -0.915890
 C        -0.497638        -1.279323        -0.620683
 C         0.031584        -0.067314         0.001177
 O         1.082438        -0.031172         0.685476
 C        -0.869245         1.249452        -0.095204
 C        -1.638756         1.256338        -1.561832
 H        -3.867467         0.684268        -0.352911
 H        -3.534146        -1.646252        -2.513676
 H        -1.735692        -1.199570        -3.183475
 H        -2.792423        -1.504586        -0.224354
 H        -0.342514        -2.186726        -0.013815
 H         0.126955        -1.699791        -1.430533
 H        -1.672944         1.255727         0.655528
 H        -0.281044         2.166055        -0.012852
 H        -2.096263         2.282622        -1.628029
 H        -0.952127         1.217120        -2.480429
