19
Iteration:    66charge 0 multiplicity 1
 O        -4.046549         0.291599        -1.407529
 C        -2.643964         0.032343        -1.492895
 C        -1.868909        -0.882800        -2.302623
 C        -2.049577        -1.216467        -0.823347
 C        -0.862181        -1.293024         0.161261
 C         0.004578        -0.094350        -0.158887
 O         1.251705        -0.175940         0.009347
 C        -0.867450         1.188967        -0.234598
 C        -1.943987         1.378436        -1.289527
 H        -4.374294        -0.144467        -0.483471
 H        -2.108441        -1.318040        -3.198157
 H        -0.926869        -0.414069        -2.568266
 H        -2.840917        -1.920312        -0.615600
 H        -1.204197        -1.118062         1.204473
 H        -0.324698        -2.225082         0.039296
 H        -1.131730         1.397128         0.811159
 H        -0.141292         1.976225        -0.417398
 H        -2.564753         2.243183        -1.327045
 H        -1.451561         1.589062        -2.193296
