19
Iteration:  1515charge 0 multiplicity 1
 O        -4.015299         0.286519        -1.647242
 C        -2.629992         0.106650        -1.364497
 C        -1.912212        -0.875410        -2.290141
 C        -2.091718        -1.294179        -0.825845
 C        -0.878699        -1.310923        -0.040343
 C        -0.028547        -0.154208        -0.152533
 O         1.201415        -0.091416         0.006701
 C        -0.751696         1.178552        -0.182654
 C        -1.910478         1.375010        -1.029671
 H        -4.493697         0.377200        -0.739980
 H        -2.489384        -1.472687        -2.976962
 H        -0.829086        -0.614765        -2.493110
 H        -2.760283        -2.135229        -0.612905
 H        -0.869190        -1.467415         1.084951
 H        -0.211026        -2.181361        -0.300416
 H        -0.886235         1.372233         0.993036
 H        -0.056378         1.975617        -0.486807
 H        -2.735579         1.934109        -0.527512
 H        -1.771069         2.060829        -1.879327
