19
Iteration:  4949
 O        -4.072252         0.047372        -1.100787
 C        -2.696609         0.089885        -1.344061
 C        -2.093346        -0.606569        -2.558810
 C        -1.991094        -1.126450        -1.155920
 C        -0.717632        -1.351446        -0.338080
 C         0.051989        -0.138201        -0.007713
 O         1.055720        -0.107141         0.657204
 C        -0.441603         1.192903        -0.781546
 C        -2.019436         1.298899        -0.861760
 H        -4.495157         0.119145        -2.010300
 H        -2.812237        -1.068804        -3.318394
 H        -1.346973        -0.157726        -3.152308
 H        -2.632501        -2.021484        -1.071840
 H        -1.150362        -1.724115         0.633199
 H        -0.070859        -2.066251        -0.734229
 H         0.026186         2.102378        -0.435711
 H        -0.095763         0.982620        -1.790359
 H        -2.499353         1.488988         0.179566
 H        -2.330741         2.265096        -1.389447
