19
Iteration:  3296
 O        -4.031205         0.279328        -1.619292
 C        -2.605444         0.000050        -1.428366
 C        -2.037850        -1.015913        -2.368280
 C        -2.090580        -1.283460        -0.811753
 C        -0.785722        -1.254999        -0.037402
 C         0.005128         0.004662        -0.082215
 O         1.202172        -0.013825        -0.193011
 C        -0.814111         1.190937         0.078560
 C        -1.805065         1.305798        -1.046875
 H        -4.360404         0.651142        -0.827715
 H        -2.768343        -1.518595        -2.951412
 H        -0.962164        -0.872142        -2.650785
 H        -2.819421        -2.031380        -0.393600
 H        -1.162771        -1.467844         0.962256
 H        -0.114050        -2.085128        -0.243012
 H        -1.489291         1.020487         0.974174
 H        -0.226657         2.079945         0.252026
 H        -2.531492         2.191181        -0.698140
 H        -1.257400         1.697799        -1.892715
