19
Iteration:   977
 O        -3.892861         0.459530        -1.098118
 C        -2.562919        -0.002142        -1.446437
 C        -2.500297        -1.173662        -2.381278
 C        -2.010487        -1.369760        -0.936154
 C        -0.491125        -1.261166        -0.717770
 C        -0.039788        -0.041794        -0.003408
 O         0.900546         0.025343         0.767343
 C        -0.774837         1.268485        -0.217238
 C        -1.621085         1.212848        -1.581288
 H        -3.892604         1.089269        -0.412373
 H        -3.497319        -1.589546        -2.737473
 H        -1.907856        -1.280886        -3.263738
 H        -2.601848        -1.902112        -0.158066
 H         0.083530        -2.069987        -0.241955
 H        -0.161762        -1.206072        -1.785941
 H        -1.375569         1.305826         0.712317
 H        -0.168610         2.207098        -0.198941
 H        -2.311079         2.131323        -1.597970
 H        -0.853155         1.243244        -2.387891
