19
Iteration:  1340charge 0 multiplicity 1
 O        -3.894602         0.348864        -1.803224
 C        -2.559382         0.046792        -1.341163
 C        -1.877635        -1.010269        -2.251154
 C        -2.068076        -1.265526        -0.858584
 C        -0.868963        -1.306097         0.177388
 C        -0.070640        -0.062750        -0.116263
 O         1.103092        -0.138296        -0.370810
 C        -0.781448         1.272432         0.077495
 C        -1.960268         1.325425        -0.955333
 H        -4.519840         0.764582        -1.061177
 H        -2.437824        -1.737626        -2.769157
 H        -0.908593        -0.727127        -2.717548
 H        -2.880704        -1.951685        -0.579506
 H        -1.166496        -1.288367         1.199047
 H        -0.351472        -2.279736         0.139978
 H        -0.937264         1.269425         1.120409
 H        -0.144022         2.113868        -0.021263
 H        -2.724694         1.794254        -0.389545
 H        -1.587916         1.949152        -1.756913
