19
Iteration:  4732charge 0 multiplicity 1
 O        -4.079595         0.135252        -0.996457
 C        -2.665133         0.075870        -1.235884
 C        -2.180076        -0.566408        -2.499641
 C        -1.945154        -1.296385        -1.163464
 C        -0.489317        -1.433971        -0.509235
 C         0.037605        -0.091964        -0.090908
 O         0.646538         0.045110         0.871894
 C        -0.386676         1.089196        -1.004690
 C        -1.844866         1.328057        -0.882579
 H        -4.523129        -0.196031        -1.805008
 H        -2.880415        -1.080788        -3.071499
 H        -1.413035        -0.096318        -2.995129
 H        -2.619871        -2.165973        -1.042828
 H        -0.500680        -2.099108         0.375693
 H         0.205612        -1.731682        -1.348405
 H         0.187916         2.050731        -0.673115
 H        -0.175193         0.768254        -2.051297
 H        -2.189305         1.579647         0.109825
 H        -2.060936         2.113558        -1.618265
