19
Iteration:  1186charge 0 multiplicity 1
 O        -4.074788         0.237408        -1.540828
 C        -2.532476         0.126644        -1.491483
 C        -2.145427        -1.079979        -2.389771
 C        -2.115866        -1.120424        -0.805897
 C        -0.705696        -1.357554        -0.128816
 C        -0.007040        -0.093975        -0.023596
 O         1.261207        -0.036766         0.055452
 C        -0.872444         1.138500         0.006800
 C        -1.766796         1.417884        -1.224535
 H        -4.345168         0.694865        -0.657031
 H        -3.049197        -1.622739        -2.878349
 H        -1.232026        -0.947966        -2.896309
 H        -2.952425        -1.647512        -0.392229
 H        -1.088604        -1.424998         0.937398
 H         0.092644        -2.131450        -0.509851
 H        -1.641289         0.992340         0.890578
 H        -0.041499         1.781821         0.332036
 H        -2.488365         2.264240        -1.174654
 H        -1.047145         1.735223        -2.008646
