19
Iteration:   123
 O        -4.005013         0.197792        -1.722261
 C        -2.594618         0.025171        -1.393764
 C        -2.173332        -1.147330        -2.323413
 C        -2.112014        -1.225633        -0.764980
 C        -0.867717        -1.192524        -0.064070
 C         0.100033         0.022229        -0.046987
 O         1.326781        -0.183768        -0.032486
 C        -0.689567         1.404653        -0.057551
 C        -1.907707         1.368704        -1.058622
 H        -4.439845         0.867164        -1.032686
 H        -3.134622        -1.626170        -2.716495
 H        -1.212994        -1.211850        -2.914838
 H        -2.865447        -1.932814        -0.306745
 H        -1.185764        -1.293056         0.986549
 H        -0.334911        -2.170812        -0.218278
 H        -1.157140         1.618894         0.899307
 H        -0.012794         2.194359        -0.354254
 H        -2.691005         1.788122        -0.531688
 H        -1.725204         1.750985        -2.037832
