19
Iteration:  3735charge 0 multiplicity 1
 O        -3.832043         0.326800        -0.875623
 C        -2.617032         0.019775        -1.494058
 C        -2.590338        -1.159230        -2.361354
 C        -1.889863        -1.278832        -1.033793
 C        -0.359172        -1.172158        -0.913404
 C         0.027738         0.009069        -0.039092
 O         0.674362        -0.007389         1.037295
 C        -0.712042         1.273551        -0.395148
 C        -1.738662         1.176057        -1.632790
 H        -3.529239         0.800672        -0.011074
 H        -3.408657        -1.763666        -2.606588
 H        -1.990347        -1.056573        -3.322875
 H        -2.438347        -1.993865        -0.443399
 H         0.158984        -2.038059        -0.407414
 H         0.092268        -1.173248        -1.901461
 H        -0.953653         1.667069         0.596595
 H         0.259137         1.741908        -0.777498
 H        -2.525964         2.072441        -1.485692
 H        -1.169362         1.492579        -2.545843
