19
Iteration:  2179
 O        -3.967781         0.018628        -1.304906
 C        -2.605111         0.058598        -1.479158
 C        -2.054114        -0.925340        -2.421917
 C        -2.022349        -1.217539        -0.955029
 C        -0.983225        -1.322126         0.014526
 C        -0.019290        -0.070630        -0.085312
 O         1.174042        -0.064951         0.109889
 C        -0.709496         1.313937        -0.178714
 C        -1.761821         1.422466        -1.190500
 H        -4.246445         0.949499        -1.476731
 H        -2.844033        -1.457705        -3.033997
 H        -1.302680        -0.768635        -3.098058
 H        -2.931154        -1.807430        -0.711858
 H        -1.485583        -1.279771         0.976613
 H        -0.353257        -2.205495        -0.022608
 H        -1.052618         1.386055         0.786524
 H        -0.017420         2.102364        -0.256047
 H        -2.367104         2.255272        -1.104117
 H        -1.392623         1.719767        -2.180110
