19
Iteration:  4255
 O        -3.990661         0.224854        -1.568022
 C        -2.603388         0.081340        -1.400850
 C        -2.014117        -0.970441        -2.379230
 C        -2.005534        -1.305222        -0.916688
 C        -0.875080        -1.316119         0.135529
 C        -0.010840        -0.043782        -0.046511
 O         1.239777         0.059373        -0.347353
 C        -0.863389         1.183418         0.128115
 C        -1.828602         1.316619        -1.027851
 H        -4.452666         0.685816        -0.788422
 H        -2.551818        -1.730272        -2.926414
 H        -1.057701        -0.826224        -2.888880
 H        -2.775647        -2.090804        -0.809753
 H        -1.324773        -1.458025         1.115873
 H        -0.225596        -2.122823        -0.246962
 H        -1.462195         1.007230         1.066247
 H        -0.391762         2.127983         0.237583
 H        -2.518294         2.217415        -0.913191
 H        -1.370014         1.572992        -1.929219
