19
Iteration:  1565
 O        -4.074387         0.122738        -1.624292
 C        -2.651216         0.117052        -1.397925
 C        -2.027890        -0.942017        -2.413667
 C        -2.055420        -1.189362        -0.935497
 C        -0.828167        -1.195337        -0.053192
 C         0.026862        -0.080614        -0.028806
 O         1.196711        -0.189560         0.000838
 C        -0.651743         1.265116        -0.019976
 C        -1.888609         1.355102        -1.021728
 H        -4.277782         0.596191        -0.780658
 H        -2.832650        -1.500821        -2.994298
 H        -1.134347        -0.690813        -2.918416
 H        -2.868895        -1.854332        -0.548693
 H        -1.223011        -1.119052         0.982218
 H        -0.208536        -2.100902        -0.091473
 H        -0.894906         1.187084         1.074831
 H         0.066603         2.040163        -0.399446
 H        -2.720015         2.048054        -0.745572
 H        -1.511035         1.772756        -1.966233
