19
Iteration:  1312
 O        -3.939135         0.197673        -1.756196
 C        -2.554989         0.088946        -1.357840
 C        -1.870578        -0.862607        -2.243438
 C        -2.194379        -1.311131        -0.789824
 C        -0.888126        -1.335374         0.148594
 C        -0.030463        -0.067738         0.007550
 O         1.111941        -0.111790        -0.415677
 C        -0.809863         1.231153         0.072941
 C        -1.822764         1.392979        -1.074975
 H        -4.504191         0.663118        -1.073596
 H        -2.365109        -1.451292        -3.095704
 H        -0.848351        -0.646793        -2.457188
 H        -2.972150        -2.044735        -0.482175
 H        -1.139491        -1.361870         1.285020
 H        -0.325274        -2.246499        -0.147402
 H        -1.180740         1.298300         1.172598
 H        -0.076041         2.122650        -0.056975
 H        -2.563961         1.988862        -0.464870
 H        -1.298813         1.940956        -1.914599
