19
Iteration:  2872charge 0 multiplicity 1
 O        -3.979648         0.227810        -1.407633
 C        -2.556154         0.072805        -1.480609
 C        -2.074389        -1.053381        -2.372275
 C        -2.135467        -1.245357        -0.916453
 C        -0.814347        -1.287442        -0.141674
 C        -0.022460        -0.004066         0.085095
 O         1.219485        -0.044529        -0.171676
 C        -0.979648         1.240895         0.132076
 C        -1.668879         1.337154        -1.195662
 H        -4.270373         0.702503        -0.537622
 H        -2.662912        -1.395566        -3.118089
 H        -0.991314        -0.845595        -2.715710
 H        -2.928470        -1.921964        -0.577905
 H        -1.069622        -1.761313         0.824757
 H        -0.062036        -2.020604        -0.505996
 H        -1.741736         1.043927         0.896428
 H        -0.527277         2.167089         0.199873
 H        -2.277001         2.241055        -1.266489
 H        -0.851945         1.408218        -2.064705
