19
Iteration:  4789
 O        -3.935072         0.219408        -0.914626
 C        -2.617323         0.021758        -1.355883
 C        -2.231270        -0.775642        -2.599828
 C        -1.998659        -1.253789        -1.228056
 C        -0.595623        -1.336860        -0.598018
 C        -0.026611        -0.072862         0.016484
 O         0.709866        -0.038196         0.915296
 C        -0.387434         1.232221        -0.881824
 C        -1.910985         1.317935        -1.027415
 H        -4.149748        -0.596187        -0.401214
 H        -3.030748        -1.277032        -3.174484
 H        -1.456712        -0.441703        -3.183406
 H        -2.682249        -2.089050        -0.922306
 H        -0.586244        -2.141131         0.082100
 H         0.161671        -1.689192        -1.360770
 H         0.221782         2.066700        -0.343924
 H         0.333919         1.236288        -1.786596
 H        -2.294518         1.484053        -0.038069
 H        -2.278725         2.238048        -1.545749
