19
Iteration:  3663
 O        -3.907304         0.383538        -0.933529
 C        -2.619354        -0.013703        -1.534705
 C        -2.547751        -1.150994        -2.435160
 C        -1.955304        -1.332206        -1.061118
 C        -0.500272        -1.230512        -0.767792
 C         0.010178         0.033711         0.093913
 O         0.970097         0.047240         0.819449
 C        -0.825631         1.265770        -0.212576
 C        -1.652017         1.200648        -1.652958
 H        -3.759582         0.050915         0.000428
 H        -3.465378        -1.632219        -2.635511
 H        -1.825383        -1.168962        -3.328207
 H        -2.617500        -1.806079        -0.347180
 H        -0.219685        -2.102645        -0.253084
 H         0.208213        -1.253522        -1.638999
 H        -1.665729         1.605809         0.442676
 H        -0.030910         2.004300        -0.206925
 H        -2.101588         2.140648        -1.619354
 H        -1.015610         1.281445        -2.507789
