19
Iteration:  2055charge 0 multiplicity 1
 O        -4.008745         0.320685        -1.393204
 C        -2.615883         0.019294        -1.357396
 C        -2.102204        -1.026752        -2.439671
 C        -2.100656        -1.311677        -0.818800
 C        -0.814000        -1.313438        -0.164920
 C        -0.004625         0.011564        -0.100271
 O         1.210148         0.006199         0.088130
 C        -0.828802         1.244958        -0.001100
 C        -1.726107         1.261230        -1.234009
 H        -4.178072         0.965643        -1.996060
 H        -2.869510        -1.585793        -2.962201
 H        -1.159026        -0.781496        -2.980161
 H        -2.835134        -2.075827        -0.646496
 H        -0.935250        -1.421591         0.921753
 H        -0.251936        -2.235726        -0.363416
 H        -1.464263         1.165007         0.839471
 H        -0.235540         2.173365         0.113425
 H        -2.559236         2.112730        -1.312389
 H        -0.988483         1.112381        -2.131483
