19
Iteration:  2080
 O        -4.021448         0.261627        -1.407947
 C        -2.605557         0.100609        -1.542074
 C        -2.137827        -1.122648        -2.356250
 C        -2.106455        -1.238869        -0.805137
 C        -0.757227        -1.310172        -0.176763
 C         0.031375        -0.007680         0.007584
 O         1.269555        -0.098745         0.137177
 C        -0.786132         1.254667        -0.082595
 C        -1.863001         1.399647        -1.205202
 H        -4.453939         0.793084        -2.116810
 H        -2.864977        -1.603008        -2.997220
 H        -1.122587        -1.025317        -2.815997
 H        -2.918928        -1.848936        -0.407815
 H        -0.797596        -1.809886         0.796414
 H        -0.095970        -1.999071        -0.738501
 H        -1.356232         1.312325         0.919281
 H        -0.170887         2.151341        -0.095743
 H        -2.720284         1.965532        -0.879371
 H        -1.328546         1.827379        -2.198784
