19
Iteration:  2507charge 0 multiplicity 1
 O        -4.038777         0.238682        -1.202337
 C        -2.633852         0.000833        -1.487170
 C        -2.095696        -0.962882        -2.459853
 C        -2.076787        -1.221881        -0.924163
 C        -0.751074        -1.313430        -0.120368
 C         0.023719         0.031636        -0.052031
 O         1.226391        -0.108431         0.211402
 C        -0.815035         1.324139        -0.126592
 C        -1.818231         1.221641        -1.331623
 H        -4.398573         0.823172        -2.007915
 H        -2.613303        -1.713040        -3.189573
 H        -1.294622        -0.505468        -3.004967
 H        -2.935731        -1.882587        -0.546550
 H        -0.971166        -1.472673         0.935711
 H        -0.146351        -2.130402        -0.528339
 H        -1.421755         1.182933         0.804967
 H        -0.279847         2.316270         0.035593
 H        -2.396411         2.177961        -1.283118
 H        -1.101533         1.431602        -2.124569
