19
Iteration:  2833charge 0 multiplicity 1
 O        -3.977761         0.392945        -1.555989
 C        -2.610736         0.101601        -1.435138
 C        -2.213998        -1.066897        -2.326284
 C        -2.120023        -1.335202        -0.864040
 C        -0.675229        -1.408815        -0.162173
 C         0.005598        -0.062553         0.039727
 O         1.243174         0.146471        -0.036017
 C        -0.929459         1.092187         0.032545
 C        -1.711954         1.292924        -1.206532
 H        -4.364711         0.397864        -0.678334
 H        -3.088697        -1.394309        -2.935248
 H        -1.256040        -0.952253        -2.908093
 H        -2.918543        -1.846984        -0.291346
 H        -0.871975        -1.598902         0.915566
 H         0.008467        -2.112762        -0.631978
 H        -1.631787         1.089566         0.898404
 H        -0.308950         2.017995         0.325255
 H        -2.258867         2.224349        -0.994298
 H        -1.044442         1.470951        -1.977884
