19
Iteration:  1270
 O        -3.960269         0.193988        -1.651487
 C        -2.547786         0.131644        -1.462463
 C        -1.970589        -0.939109        -2.289493
 C        -2.089772        -1.200389        -0.839311
 C        -0.898432        -1.286750         0.128126
 C        -0.017831        -0.067657        -0.023574
 O         1.187281        -0.153816        -0.350217
 C        -0.831682         1.218317         0.134805
 C        -1.801031         1.385077        -1.128167
 H        -4.415224         0.057594        -0.697313
 H        -2.546611        -1.450496        -3.121535
 H        -0.955339        -0.733402        -2.511761
 H        -3.028453        -1.725116        -0.624905
 H        -1.303009        -1.453277         1.115051
 H        -0.186286        -2.073894         0.140886
 H        -1.629060         1.193101         0.866273
 H        -0.249282         2.102112         0.510158
 H        -2.657359         2.002990        -0.711767
 H        -1.331220         1.818613        -2.004495
