19
Iteration:  3875
 O        -3.781790         0.315443        -0.718724
 C        -2.577653        -0.012176        -1.322083
 C        -2.616388        -1.180621        -2.441634
 C        -1.835114        -1.258032        -1.076292
 C        -0.327222        -1.118208        -0.941602
 C        -0.066048         0.008362        -0.034597
 O         0.516116        -0.056710         1.027677
 C        -0.706491         1.360872        -0.465775
 C        -1.596790         1.178202        -1.727339
 H        -3.809187         0.234990         0.187401
 H        -3.639890        -1.584168        -2.659899
 H        -2.029510        -0.857475        -3.300808
 H        -2.343337        -1.955476        -0.439028
 H         0.262599        -2.051308        -0.682456
 H         0.153578        -0.776056        -1.894704
 H        -1.340922         1.656052         0.411579
 H         0.120333         2.081635        -0.466357
 H        -2.081883         1.913456        -2.199941
 H        -0.913835         0.738003        -2.534385
