19
Iteration:  2004
 O        -3.806888         0.308202        -1.173019
 C        -2.494191         0.078377        -1.515009
 C        -2.115079        -1.110320        -2.442655
 C        -2.046601        -1.262446        -0.917236
 C        -0.851141        -1.342374        -0.085983
 C        -0.112640         0.045560        -0.059209
 O         1.127210        -0.033198        -0.058729
 C        -1.043685         1.246012         0.134026
 C        -1.642570         1.325955        -1.353623
 H        -4.381882         0.669104        -1.928250
 H        -2.886881        -1.697688        -2.827885
 H        -1.188885        -0.990666        -3.087529
 H        -2.957376        -1.760878        -0.624871
 H        -1.103158        -1.617722         0.966243
 H        -0.199694        -2.185725        -0.387114
 H        -1.956961         1.231667         0.804506
 H        -0.407970         2.134854         0.315653
 H        -2.208083         2.128046        -1.539261
 H        -0.719156         1.202210        -1.901072
