19
Iteration:  2182
 O        -3.949551         0.021708        -1.315751
 C        -2.589749         0.082963        -1.461440
 C        -2.049748        -0.937984        -2.410097
 C        -2.066690        -1.244802        -0.955381
 C        -0.984256        -1.319932         0.003960
 C         0.012744        -0.052307        -0.080284
 O         1.178535        -0.083447         0.099561
 C        -0.715803         1.318096        -0.166651
 C        -1.779090         1.431422        -1.194066
 H        -4.419833         0.803874        -1.449818
 H        -2.818305        -1.423516        -2.989710
 H        -1.257307        -0.719077        -3.210811
 H        -2.916818        -1.843663        -0.675529
 H        -1.541897        -1.219885         0.968817
 H        -0.312636        -2.193506        -0.037926
 H        -1.170357         1.406109         0.914663
 H         0.017303         2.154964        -0.262516
 H        -2.429416         2.279376        -1.167222
 H        -1.299546         1.678372        -2.257280
