19
Iteration:  4146charge 0 multiplicity 1
 O        -4.012725         0.199377        -1.298126
 C        -2.622220         0.062514        -1.416810
 C        -2.341523        -1.031896        -2.471026
 C        -2.033189        -1.330761        -0.981364
 C        -0.641411        -1.263332        -0.376790
 C         0.031062         0.005909         0.014351
 O         1.176397        -0.017414         0.310298
 C        -0.766985         1.315423        -0.093036
 C        -1.801182         1.264525        -1.289884
 H        -4.129583         0.688554        -0.371705
 H        -2.982814        -1.645199        -3.007177
 H        -1.556538        -0.623805        -3.141816
 H        -2.694459        -1.985213        -0.420877
 H        -0.720345        -1.579352         0.736841
 H         0.071639        -1.978853        -0.768285
 H        -1.408341         1.493772         0.831630
 H        -0.055734         2.098358        -0.177232
 H        -2.538931         2.121013        -1.236019
 H        -1.062958         1.504894        -2.059804
