19
Iteration:  3093
 O        -4.025903         0.298150        -1.630557
 C        -2.610938         0.052440        -1.472910
 C        -1.872594        -0.896330        -2.347112
 C        -2.048040        -1.284508        -0.858224
 C        -0.771817        -1.290649         0.125985
 C        -0.032163        -0.038850        -0.030696
 O         1.175031        -0.249074        -0.224509
 C        -0.749126         1.331389        -0.104767
 C        -2.071959         1.331440        -0.914654
 H        -4.485851        -0.127088        -0.818055
 H        -2.435582        -1.365498        -3.059392
 H        -0.874293        -0.502692        -2.775893
 H        -2.494593        -2.277344        -0.768078
 H        -1.229189        -1.200848         1.174806
 H         0.020287        -2.084100         0.131116
 H        -0.990228         1.560116         1.019799
 H        -0.115439         2.219303        -0.424957
 H        -2.787688         1.955018        -0.430613
 H        -1.678776         1.851370        -1.958424
