19
Iteration:   908
 O        -3.768848         0.383748        -0.825478
 C        -2.510779         0.017091        -1.515895
 C        -2.552372        -1.115230        -2.429283
 C        -1.963403        -1.286119        -1.079697
 C        -0.479926        -1.320905        -0.755004
 C         0.003662         0.014484        -0.022282
 O         0.663293         0.020915         1.003790
 C        -0.720717         1.284758        -0.474648
 C        -1.692626         1.242391        -1.656924
 H        -3.500968         0.071184         0.156070
 H        -3.472563        -1.534783        -2.624974
 H        -2.007743        -1.078245        -3.382527
 H        -2.637428        -1.695392        -0.349424
 H        -0.273320        -2.212909        -0.173397
 H         0.222166        -1.452210        -1.611785
 H        -1.049061         1.751619         0.480868
 H         0.263165         1.808126        -0.611507
 H        -2.406531         2.059867        -1.797746
 H        -1.031924         1.057242        -2.491201
