19
Iteration:  2198
 O        -4.020418         0.054257        -1.321555
 C        -2.580682         0.053013        -1.433601
 C        -2.053189        -0.936689        -2.435877
 C        -2.116457        -1.268630        -0.939435
 C        -0.884894        -1.210895        -0.018669
 C         0.006116        -0.015946        -0.023240
 O         1.227642        -0.172510         0.041295
 C        -0.767656         1.349389        -0.055718
 C        -1.786597         1.384378        -1.297530
 H        -4.269038         0.826628        -1.820686
 H        -2.791759        -1.325911        -3.207572
 H        -0.996607        -0.922534        -2.690219
 H        -2.977193        -1.928213        -0.700895
 H        -1.167426        -1.235380         1.057587
 H        -0.283752        -2.131823        -0.066723
 H        -1.328672         1.489540         0.930310
 H        -0.009699         2.158549        -0.089352
 H        -2.555273         2.280119        -1.063437
 H        -1.295688         1.689660        -2.212997
