19
Iteration:  2546
 O        -3.966302         0.203210        -1.268697
 C        -2.587336         0.077399        -1.533511
 C        -2.281269        -1.110095        -2.510230
 C        -2.083216        -1.272028        -0.958486
 C        -0.754467        -1.471297        -0.124755
 C        -0.031255        -0.017100         0.059070
 O         1.195370         0.093951         0.122091
 C        -0.820239         1.314745         0.013653
 C        -1.626024         1.341155        -1.300304
 H        -4.209848         1.086297        -1.360762
 H        -3.157850        -1.468053        -3.011879
 H        -1.381612        -0.925610        -3.081400
 H        -2.977136        -1.743635        -0.612040
 H        -1.207347        -1.631613         0.885063
 H         0.026409        -2.233314        -0.404550
 H        -1.548243         1.422798         0.855838
 H        -0.211715         2.180629         0.101799
 H        -2.364834         2.149175        -1.310668
 H        -0.984359         1.330745        -2.253649
