19
Iteration:  4809charge 0 multiplicity 1
 O        -4.043939         0.143955        -1.042087
 C        -2.626144         0.072367        -1.327922
 C        -2.245955        -0.690599        -2.510571
 C        -1.972498        -1.298084        -1.102902
 C        -0.510057        -1.390681        -0.647500
 C         0.039790        -0.076002        -0.056564
 O         0.695766        -0.078930         0.899026
 C        -0.367183         1.177053        -0.820875
 C        -1.935802         1.421244        -1.008882
 H        -4.098000        -0.224127        -0.192676
 H        -3.077706        -1.074958        -3.116999
 H        -1.454461        -0.359085        -3.067119
 H        -2.577867        -2.191734        -0.776393
 H        -0.395258        -2.041769         0.234125
 H         0.178798        -1.817436        -1.517166
 H         0.085597         2.174401        -0.387762
 H         0.202510         1.190176        -1.754677
 H        -2.451996         2.032822        -0.297528
 H        -2.009360         1.963253        -1.891886
