19
Iteration:  4730charge 0 multiplicity 1
 O        -4.096345         0.130854        -0.997198
 C        -2.654052         0.078571        -1.227569
 C        -2.169574        -0.590087        -2.504333
 C        -1.956640        -1.286026        -1.159628
 C        -0.485238        -1.418048        -0.518160
 C         0.023340        -0.109874        -0.095696
 O         0.647364         0.050820         0.861787
 C        -0.371886         1.085591        -0.998679
 C        -1.845305         1.341091        -0.876099
 H        -4.516458        -0.118178        -1.776358
 H        -2.860797        -1.060298        -3.121898
 H        -1.288183        -0.063698        -3.014699
 H        -2.603082        -2.123956        -1.018432
 H        -0.507076        -2.111347         0.415411
 H         0.255810        -1.731198        -1.355631
 H         0.151187         1.995090        -0.690360
 H        -0.223250         0.765032        -2.004517
 H        -2.195532         1.582387         0.132393
 H        -2.098832         2.025503        -1.588066
