19
Iteration:  2124charge 0 multiplicity 1
 O        -4.101882         0.209310        -1.387178
 C        -2.706155         0.034183        -1.388321
 C        -2.039858        -0.943640        -2.375077
 C        -2.128869        -1.292921        -0.861485
 C        -0.752686        -1.275222        -0.176655
 C         0.054830        -0.030873        -0.123703
 O         1.180313        -0.101015         0.244146
 C        -0.678591         1.285430        -0.205275
 C        -1.825010         1.376611        -1.182189
 H        -4.222263         0.261425        -2.406254
 H        -2.850809        -1.450399        -2.963479
 H        -1.112967        -0.655917        -2.794836
 H        -2.934520        -1.999590        -0.546911
 H        -0.859609        -1.444250         0.898967
 H        -0.034563        -2.072362        -0.379117
 H        -1.016568         1.354376         0.835517
 H         0.077201         2.037380        -0.314020
 H        -2.455883         2.117244        -0.792805
 H        -1.496011         1.552409        -2.284819
