19
Iteration:  1576charge 0 multiplicity 1
 O        -4.055912         0.175457        -1.560839
 C        -2.612756         0.056581        -1.403522
 C        -2.002493        -0.877983        -2.413354
 C        -2.094172        -1.234747        -0.902351
 C        -0.930713        -1.316589        -0.001222
 C         0.037553        -0.083027        -0.117010
 O         1.298868        -0.157131         0.018246
 C        -0.698256         1.287892        -0.044776
 C        -1.924406         1.405328        -1.112043
 H        -4.698018         0.373877        -0.744701
 H        -2.547433        -1.514945        -3.161126
 H        -0.995930        -0.758900        -2.750405
 H        -2.890835        -1.975160        -0.648855
 H        -1.195181        -1.294696         1.056757
 H        -0.269328        -2.176694        -0.157142
 H        -1.124413         1.361694         1.014933
 H         0.067869         2.140012        -0.019555
 H        -2.635003         2.180926        -0.767525
 H        -1.454916         1.792665        -2.022156
