19
Iteration:  2295
 O        -3.926820         0.397147        -1.594873
 C        -2.554050         0.075284        -1.481043
 C        -2.050028        -1.108348        -2.276006
 C        -2.166113        -1.266680        -0.807016
 C        -0.808471        -1.328879         0.009479
 C        -0.030423         0.030516        -0.017168
 O         1.170727         0.008405        -0.296255
 C        -0.892964         1.202239         0.246606
 C        -1.720054         1.294758        -1.161624
 H        -4.470479        -0.441355        -1.626010
 H        -2.606636        -1.797147        -2.986894
 H        -1.074430        -1.088680        -2.619621
 H        -2.952220        -1.914325        -0.396805
 H        -0.948271        -1.942962         0.910358
 H        -0.054775        -1.965759        -0.475019
 H        -1.681312         1.144687         1.083358
 H        -0.311233         2.129857         0.360694
 H        -2.461730         2.099019        -1.033680
 H        -1.234636         1.793250        -1.931215
