19
Iteration:  2492charge 0 multiplicity 1
 O        -4.051412         0.311960        -1.221636
 C        -2.661078         0.050639        -1.455136
 C        -2.063968        -1.037408        -2.423905
 C        -2.057415        -1.309333        -0.974394
 C        -0.772714        -1.294061        -0.151016
 C         0.042265        -0.052930         0.007216
 O         1.241446        -0.053558         0.204475
 C        -0.832165         1.246058        -0.116954
 C        -1.823999         1.401543        -1.336313
 H        -4.518708         0.335577        -2.040109
 H        -2.721295        -1.597464        -2.976740
 H        -1.056864        -0.841329        -2.797645
 H        -2.710176        -2.100416        -0.647758
 H        -1.000023        -1.763452         0.854377
 H        -0.008740        -2.047087        -0.404042
 H        -1.401623         1.390293         0.801888
 H        -0.063037         1.922893        -0.305963
 H        -2.646317         2.172432        -1.136039
 H        -1.445674         1.622369        -2.451691
