19
Iteration:  4512
 O        -4.106095        -0.010224        -1.524249
 C        -2.658953         0.087785        -1.332013
 C        -1.850370        -0.675837        -2.316212
 C        -2.041091        -1.262620        -1.022607
 C        -0.855658        -1.339081        -0.097628
 C         0.014594        -0.072077        -0.161654
 O         1.210893        -0.177751         0.252968
 C        -0.523178         1.324854        -0.611986
 C        -2.123794         1.374030        -0.710580
 H        -4.679542         0.476374        -0.818981
 H        -2.549612        -1.108268        -3.138866
 H        -0.993247        -0.430629        -2.895845
 H        -2.938395        -1.877003        -0.836769
 H        -1.246949        -1.505717         0.863414
 H        -0.216340        -2.131298        -0.267630
 H        -0.137339         2.135024         0.063020
 H        -0.148128         1.585024        -1.654382
 H        -2.436981         1.450932         0.321014
 H        -2.429468         2.430607        -1.062235
