19
Iteration:   288
 O        -4.015336         0.119804        -1.682959
 C        -2.558158         0.170599        -1.435817
 C        -1.972618        -1.086851        -2.194583
 C        -2.222047        -1.097744        -0.670691
 C        -0.903888        -1.294900         0.014632
 C         0.025282        -0.063002        -0.097729
 O         1.247712        -0.112333        -0.212860
 C        -0.775030         1.254678        -0.028576
 C        -1.806909         1.466695        -1.155198
 H        -4.440421        -0.066096        -0.919966
 H        -2.704866        -1.495658        -2.862604
 H        -0.867340        -1.253316        -2.452978
 H        -3.048206        -1.703032        -0.385460
 H        -1.118591        -1.535987         1.059388
 H        -0.379203        -2.221565        -0.378706
 H        -1.354260         1.151638         0.890074
 H        -0.036468         2.054594         0.176469
 H        -2.557268         2.244266        -0.777216
 H        -1.210135         1.791428        -2.021896
