19
Iteration:   255charge 0 multiplicity 1
 O        -3.964031         0.360633        -1.570433
 C        -2.615146        -0.015840        -1.372059
 C        -1.923826        -0.969130        -2.275906
 C        -2.037443        -1.330846        -0.862488
 C        -0.904580        -1.270898         0.222238
 C        -0.060856        -0.002274        -0.017679
 O         1.128157        -0.137848        -0.270109
 C        -0.785464         1.289341        -0.125302
 C        -1.847911         1.326838        -1.138037
 H        -4.619026        -0.047721        -0.910691
 H        -2.527051        -1.508035        -3.009808
 H        -0.832320        -0.686540        -2.592085
 H        -2.671269        -2.195242        -0.695981
 H        -1.369461        -1.287098         1.220788
 H        -0.286388        -2.210807         0.056636
 H        -1.154246         1.472918         0.886709
 H         0.008615         2.047798        -0.314513
 H        -2.446094         2.330967        -1.124879
 H        -1.190666         1.472635        -2.051373
