19
Iteration:  4788charge 0 multiplicity 1
 O        -3.932884         0.223621        -0.910241
 C        -2.619890         0.023037        -1.369318
 C        -2.228683        -0.778347        -2.605550
 C        -1.997158        -1.258640        -1.225487
 C        -0.599759        -1.329989        -0.599487
 C        -0.035177        -0.075223         0.013891
 O         0.712650        -0.033337         0.917770
 C        -0.375525         1.225225        -0.884996
 C        -1.915573         1.323275        -1.019751
 H        -4.149591        -0.631710        -0.401326
 H        -3.029352        -1.278929        -3.160245
 H        -1.503192        -0.435907        -3.173764
 H        -2.667379        -2.117889        -0.935103
 H        -0.603653        -2.136399         0.112092
 H         0.178568        -1.694751        -1.379374
 H         0.221510         2.080792        -0.335536
 H         0.334934         1.226721        -1.763794
 H        -2.295895         1.476529        -0.041444
 H        -2.280472         2.199128        -1.512237
