19
Iteration:  4285charge 0 multiplicity 1
 O        -3.975727         0.211440        -1.660200
 C        -2.542652         0.083106        -1.417120
 C        -1.883049        -0.892303        -2.270161
 C        -2.083419        -1.290825        -0.745447
 C        -0.786639        -1.294001         0.112833
 C        -0.024029        -0.023397        -0.155106
 O         1.112108        -0.042152        -0.453972
 C        -0.932995         1.153657         0.199337
 C        -1.864942         1.333773        -1.011924
 H        -4.433631         0.522001        -0.927647
 H        -2.396846        -1.356736        -3.036393
 H        -0.803754        -0.771488        -2.481549
 H        -2.924530        -1.928850        -0.530468
 H        -0.962633        -1.575147         1.120788
 H        -0.072799        -2.060025        -0.314973
 H        -1.427456         0.958570         1.134909
 H        -0.388831         2.127641         0.262896
 H        -2.626055         2.190218        -0.872609
 H        -1.296169         1.621643        -1.902846
