19
Iteration:  3102charge 0 multiplicity 1
 O        -4.025357         0.305483        -1.677456
 C        -2.617635        -0.027253        -1.444989
 C        -1.871651        -0.875313        -2.397386
 C        -2.006933        -1.237591        -0.832685
 C        -0.854641        -1.253317         0.184143
 C         0.038988        -0.069571        -0.062103
 O         1.218115        -0.222958        -0.253871
 C        -0.804485         1.341775        -0.089466
 C        -2.038637         1.319393        -0.859758
 H        -4.491763         0.014399        -0.804974
 H        -2.559225        -1.409894        -3.032850
 H        -0.889394        -0.649551        -2.751139
 H        -2.657135        -2.183016        -0.720536
 H        -1.191942        -1.355364         1.270033
 H        -0.208181        -2.152896        -0.086045
 H        -0.996738         1.487742         1.043308
 H        -0.090477         2.111213        -0.396626
 H        -2.891321         1.848615        -0.585246
 H        -1.807325         1.867190        -1.828318
