19
Iteration:  1033charge 0 multiplicity 1
 O        -4.006148         0.355269        -1.246144
 C        -2.628244         0.067754        -1.472451
 C        -2.486242        -1.069198        -2.439096
 C        -2.109873        -1.279634        -0.911639
 C        -0.628868        -1.234552        -0.548938
 C        -0.012941        -0.015472         0.080221
 O         1.124433         0.030860         0.574019
 C        -0.794631         1.266404        -0.148578
 C        -1.524735         1.142552        -1.483912
 H        -4.069269         0.442890        -0.218927
 H        -3.327512        -1.622682        -2.737924
 H        -1.524254        -1.117212        -3.071359
 H        -2.772590        -1.996557        -0.370915
 H        -0.283643        -2.105717         0.020470
 H         0.023701        -1.610595        -1.330393
 H        -1.381399         1.087492         0.776868
 H        -0.328919         2.244229        -0.151167
 H        -1.968349         2.135395        -1.747301
 H        -0.605189         1.118325        -2.103060
