19
Iteration:  4886charge 0 multiplicity 1
 O        -4.039559         0.185716        -1.065672
 C        -2.639931         0.028049        -1.347133
 C        -2.191621        -0.717786        -2.622861
 C        -2.009060        -1.308019        -1.156470
 C        -0.583724        -1.402900        -0.455095
 C         0.060424        -0.084374        -0.106446
 O         0.788219         0.015374         0.790024
 C        -0.380757         1.197249        -0.836764
 C        -1.946400         1.261562        -0.809887
 H        -4.359648         1.138655        -1.292254
 H        -3.072479        -1.019239        -3.182885
 H        -1.357922        -0.481348        -3.167561
 H        -2.639898        -2.166540        -0.883228
 H        -0.531336        -1.991706         0.433823
 H         0.222289        -1.897856        -1.169748
 H         0.192728         2.107779        -0.334163
 H        -0.085987         1.342854        -1.858239
 H        -2.265288         1.177934         0.287685
 H        -2.364788         2.159152        -1.171838
