19
Iteration:  4633charge 0 multiplicity 1
 O        -4.117885         0.135580        -1.223290
 C        -2.709613         0.086544        -1.296970
 C        -2.129334        -0.694250        -2.465182
 C        -1.999035        -1.222420        -1.079692
 C        -0.634350        -1.359679        -0.428816
 C         0.046178        -0.089071        -0.001765
 O         1.020968        -0.010583         0.692137
 C        -0.521860         1.117417        -0.757010
 C        -1.952913         1.338664        -1.011052
 H        -4.517815        -0.347416        -0.502861
 H        -2.753909        -1.214427        -3.073315
 H        -1.213111        -0.338301        -2.970868
 H        -2.663149        -2.051159        -0.918791
 H        -0.652509        -1.968348         0.490926
 H         0.056992        -1.807129        -1.102260
 H        -0.083169         1.927872        -0.046369
 H         0.111422         1.096462        -1.706320
 H        -2.389320         1.736443        -0.061767
 H        -2.108290         2.119536        -1.896392
