19
Iteration:  3736charge 0 multiplicity 1
 O        -3.832844         0.320809        -0.874589
 C        -2.617734         0.013342        -1.504071
 C        -2.588246        -1.156987        -2.351705
 C        -1.903218        -1.273403        -1.030404
 C        -0.352663        -1.174261        -0.928022
 C         0.028066         0.009057        -0.028494
 O         0.670626        -0.005550         1.037823
 C        -0.707611         1.275963        -0.404499
 C        -1.732304         1.170632        -1.626342
 H        -3.526817         0.799329         0.015570
 H        -3.416377        -1.733406        -2.613432
 H        -1.964188        -1.072969        -3.315024
 H        -2.464024        -1.975466        -0.449699
 H         0.131223        -2.021721        -0.416574
 H         0.129083        -1.153533        -1.923251
 H        -0.953026         1.679753         0.565857
 H         0.247387         1.745674        -0.783450
 H        -2.509344         2.107187        -1.463204
 H        -1.174550         1.486682        -2.500367
