19
Iteration:    50
 O        -4.093872         0.257866        -1.397802
 C        -2.620572         0.051459        -1.458862
 C        -1.903167        -0.965206        -2.442636
 C        -2.036420        -1.230635        -0.902906
 C        -0.915497        -1.196265         0.131640
 C        -0.004656        -0.039070        -0.034033
 O         1.220872        -0.199300        -0.039952
 C        -0.746925         1.312837        -0.144356
 C        -1.837534         1.318937        -1.266242
 H        -4.432357        -0.254093        -0.523319
 H        -2.569917        -1.680604        -3.031934
 H        -0.898275        -0.734303        -2.896612
 H        -2.782061        -2.026181        -0.688369
 H        -1.381468        -1.053271         1.131683
 H        -0.307474        -2.119190         0.227066
 H        -1.328671         1.354465         0.802872
 H        -0.080608         2.202627        -0.263968
 H        -2.640625         2.006657        -0.865595
 H        -1.393340         1.619948        -2.288695
