19
Iteration:  1946
 O        -4.068913         0.311448        -1.421663
 C        -2.629684         0.053038        -1.498677
 C        -2.221028        -1.083456        -2.389212
 C        -2.101907        -1.215417        -0.873649
 C        -0.708742        -1.326760        -0.147489
 C         0.035879         0.031672         0.050560
 O         1.284449        -0.003357         0.043491
 C        -0.909879         1.175992         0.125552
 C        -1.661400         1.253543        -1.286914
 H        -4.347792         0.993539        -1.994301
 H        -3.107181        -1.485222        -2.980494
 H        -1.304861        -0.928538        -2.890719
 H        -2.734741        -1.924540        -0.309458
 H        -0.926745        -1.536082         0.902518
 H        -0.028581        -2.075404        -0.575239
 H        -1.696133         1.137871         0.918783
 H        -0.224356         2.072725         0.139273
 H        -2.099595         2.177982        -1.448911
 H        -1.177354         1.253780        -2.266700
