19
Iteration:   781
 O        -3.752659         0.420020        -0.749793
 C        -2.618662         0.088719        -1.447470
 C        -2.509169        -1.195957        -2.357329
 C        -1.842636        -1.271854        -1.012305
 C        -0.368916        -1.315785        -0.900453
 C        -0.109569         0.001967        -0.077451
 O         0.470349        -0.115418         1.026612
 C        -0.691497         1.391096        -0.503489
 C        -1.572849         1.203417        -1.727769
 H        -3.591522         0.482411         0.271152
 H        -3.390399        -1.765977        -2.386908
 H        -1.996371        -1.283545        -3.367685
 H        -2.316029        -1.836856        -0.253739
 H         0.170135        -1.963015        -0.271709
 H        -0.100808        -1.167845        -1.966041
 H        -1.271492         1.743456         0.336815
 H         0.029194         2.187717        -0.592365
 H        -1.984762         2.237370        -1.959357
 H        -1.053767         0.952978        -2.676803
