19
Iteration:  2688
 O        -4.027236         0.289125        -1.281849
 C        -2.645561         0.093461        -1.375023
 C        -2.228137        -0.937991        -2.442957
 C        -2.019701        -1.204791        -0.978318
 C        -0.740335        -1.422088        -0.196660
 C         0.034429        -0.086385         0.055942
 O         1.200534         0.023048         0.268363
 C        -0.805402         1.241672        -0.169053
 C        -1.760035         1.363473        -1.401949
 H        -4.393474        -0.494309        -0.970229
 H        -2.890066        -1.809660        -2.953491
 H        -1.250675        -0.866599        -2.880520
 H        -2.855795        -1.892720        -0.651732
 H        -0.985758        -2.049947         0.690590
 H         0.028809        -1.965135        -0.804397
 H        -1.424928         1.322110         0.833506
 H        -0.068376         2.007482        -0.068301
 H        -2.416243         2.196539        -1.468697
 H        -1.101922         1.282007        -2.203438
