19
Iteration:  2884charge 0 multiplicity 1
 O        -3.977282         0.295989        -1.395752
 C        -2.545008         0.016288        -1.491302
 C        -2.084576        -1.013473        -2.527206
 C        -2.040854        -1.281779        -0.891254
 C        -0.770549        -1.296556        -0.003634
 C        -0.043036         0.010515        -0.009945
 O         1.131945        -0.063814        -0.148402
 C        -0.919396         1.242089         0.176698
 C        -1.760773         1.313824        -1.242355
 H        -4.032968         0.667426        -0.545232
 H        -2.669011        -1.545704        -3.200038
 H        -0.966916        -0.897784        -2.814199
 H        -2.836231        -1.891894        -0.403954
 H        -1.132800        -1.555340         0.990301
 H        -0.083709        -2.029970        -0.472194
 H        -1.513402         1.191288         1.077318
 H        -0.258154         2.016649         0.404433
 H        -2.520052         2.062503        -1.142160
 H        -1.055943         1.654986        -2.132185
