19
Iteration:  2622
 O        -3.978936         0.401373        -1.336795
 C        -2.550167         0.047139        -1.497504
 C        -2.406644        -1.053282        -2.426621
 C        -2.050661        -1.266537        -0.919793
 C        -0.652749        -1.336283        -0.256856
 C        -0.035830        -0.038254         0.100880
 O         1.218872         0.108269         0.140551
 C        -0.899834         1.186947         0.079432
 C        -1.584945         1.233053        -1.313422
 H        -4.430968        -0.381591        -1.884653
 H        -3.129794        -1.777947        -2.959076
 H        -1.479914        -1.204173        -2.935504
 H        -2.818885        -1.822695        -0.372809
 H        -0.967603        -1.876916         0.650308
 H         0.034814        -1.886562        -0.916758
 H        -1.640349         1.354525         0.943853
 H        -0.293079         2.061505         0.147395
 H        -2.357310         1.942632        -1.273667
 H        -1.141397         1.458247        -2.241431
