19
Iteration:  1722charge 0 multiplicity 1
 O        -3.929989         0.381695        -1.360115
 C        -2.504890         0.069356        -1.454114
 C        -2.148837        -1.115309        -2.371602
 C        -2.181031        -1.287745        -0.886854
 C        -0.770839        -1.316964        -0.178422
 C        -0.022262        -0.014146        -0.009212
 O         1.164560         0.063614        -0.043921
 C        -0.951422         1.189932         0.099647
 C        -1.628179         1.276759        -1.225558
 H        -4.412029        -0.051724        -2.078430
 H        -3.078452        -1.507967        -3.007969
 H        -1.153762        -1.162563        -2.877598
 H        -2.967079        -1.895325        -0.433090
 H        -1.064703        -1.508088         0.889740
 H        -0.090020        -2.114119        -0.528438
 H        -1.806396         1.208556         0.929723
 H        -0.289355         2.048668         0.388360
 H        -2.148636         2.289242        -1.304407
 H        -0.811574         1.234795        -1.997649
