19
Iteration:  4586charge 0 multiplicity 1
 O        -4.058747         0.181620        -1.315787
 C        -2.627583         0.074091        -1.372569
 C        -2.051008        -0.758332        -2.472621
 C        -2.016954        -1.250034        -1.051244
 C        -0.801217        -1.275307        -0.260811
 C         0.038275        -0.054876        -0.173949
 O         1.063832        -0.062531         0.575194
 C        -0.437831         1.232380        -0.773114
 C        -2.058130         1.232628        -0.750906
 H        -4.374838        -0.602926        -0.863112
 H        -2.885274        -1.247244        -3.260092
 H        -1.193533        -0.350332        -3.054820
 H        -2.649339        -2.129234        -0.820983
 H        -1.105806        -1.471437         0.899343
 H        -0.071695        -2.105319        -0.572986
 H        -0.147289         2.073440        -0.211797
 H        -0.019803         1.355557        -1.820542
 H        -2.343498         1.375448         0.371075
 H        -2.403140         2.071170        -1.337305
