19
Iteration:  2342charge 0 multiplicity 1
 O        -3.988206         0.382450        -1.365965
 C        -2.541101         0.031185        -1.491463
 C        -1.925992        -1.011926        -2.419299
 C        -2.075266        -1.296724        -0.872627
 C        -0.886556        -1.308168         0.084726
 C        -0.048455        -0.001050         0.042026
 O         1.125865        -0.036132        -0.256714
 C        -0.905532         1.206190         0.078507
 C        -1.701780         1.317918        -1.235586
 H        -4.556644        -0.333232        -1.357738
 H        -2.524873        -1.631836        -3.020402
 H        -0.983877        -0.693833        -2.962326
 H        -2.741156        -2.152205        -0.635899
 H        -1.131652        -1.461783         1.138697
 H        -0.195886        -2.125930        -0.096071
 H        -1.778283         1.020483         0.826659
 H        -0.381898         2.133543         0.360411
 H        -2.388595         2.199071        -1.288579
 H        -1.063856         1.543373        -2.044900
