19
Iteration:   766
 O        -3.810169         0.358635        -0.757647
 C        -2.529341         0.027914        -1.483635
 C        -2.696994        -1.114806        -2.350004
 C        -1.893983        -1.271406        -1.097314
 C        -0.328740        -1.250468        -0.894509
 C        -0.057052        -0.015431         0.036074
 O         0.545391        -0.003956         1.091816
 C        -0.663285         1.312665        -0.494229
 C        -1.547708         1.195487        -1.796285
 H        -3.542815         0.260724         0.246180
 H        -3.671842        -1.637663        -2.550383
 H        -2.135582        -1.014058        -3.229600
 H        -2.482243        -1.793430        -0.283410
 H        -0.106123        -2.314951        -0.617176
 H         0.340289        -1.120493        -1.761585
 H        -1.337254         1.692407         0.302532
 H         0.231936         2.002478        -0.579616
 H        -2.174799         2.084865        -2.071635
 H        -0.860352         0.842200        -2.593141
