19
Iteration:  1293
 O        -3.984450         0.110645        -1.711666
 C        -2.566524         0.124319        -1.411804
 C        -1.815556        -0.930527        -2.266600
 C        -2.113756        -1.137130        -0.720167
 C        -0.965037        -1.279470         0.074459
 C        -0.058749        -0.121548        -0.146636
 O         1.133516        -0.142634        -0.365540
 C        -0.774796         1.222728         0.147859
 C        -1.853170         1.441938        -1.036123
 H        -4.393757         0.405791        -0.920425
 H        -2.517039        -1.411413        -3.000952
 H        -0.850908        -0.713969        -2.638834
 H        -2.779156        -1.957514        -0.536428
 H        -1.224917        -1.435231         1.113209
 H        -0.402909        -2.186694        -0.009623
 H        -1.315916         1.193813         1.078804
 H        -0.227760         2.167029         0.326939
 H        -2.318282         2.444617        -0.855339
 H        -1.147557         1.433735        -1.840925
