19
Iteration:   976charge 0 multiplicity 1
 O        -3.894545         0.462608        -1.092008
 C        -2.564847        -0.012829        -1.438852
 C        -2.501526        -1.171533        -2.393688
 C        -2.014109        -1.363777        -0.933439
 C        -0.488185        -1.267840        -0.727696
 C        -0.048882        -0.037526        -0.007172
 O         0.902409         0.028743         0.774651
 C        -0.772734         1.271353        -0.221126
 C        -1.610968         1.207784        -1.579346
 H        -3.921241         1.066328        -0.428455
 H        -3.491209        -1.590482        -2.740013
 H        -1.903353        -1.277092        -3.236269
 H        -2.578035        -1.906167        -0.164913
 H         0.059554        -2.063164        -0.232066
 H        -0.175248        -1.181059        -1.790642
 H        -1.360410         1.314921         0.719822
 H        -0.144756         2.204555        -0.202572
 H        -2.318690         2.099045        -1.634011
 H        -0.847213         1.243961        -2.364475
