19
Iteration:  3746
 O        -3.854735         0.272573        -0.860808
 C        -2.622334         0.005925        -1.497863
 C        -2.573328        -1.179754        -2.396439
 C        -1.947210        -1.243881        -1.008880
 C        -0.319947        -1.192829        -1.000347
 C        -0.027642         0.006970         0.023848
 O         0.648618        -0.010092         1.039853
 C        -0.636843         1.288791        -0.486678
 C        -1.673746         1.205059        -1.528542
 H        -3.641574         0.648197         0.081936
 H        -3.536444        -1.564566        -2.513133
 H        -1.772203        -1.192781        -3.193117
 H        -2.465460        -1.759809        -0.210996
 H        -0.023036        -2.170221        -0.557061
 H         0.190743        -0.955044        -1.928956
 H        -1.087089         1.900667         0.309969
 H         0.123269         2.055137        -0.848759
 H        -2.261385         2.217478        -1.460473
 H        -1.196432         1.211168        -2.559393
