19
Iteration:  2895charge 0 multiplicity 1
 O        -3.927438         0.312151        -1.410438
 C        -2.558514         0.013051        -1.496278
 C        -2.034982        -0.987123        -2.458805
 C        -2.026417        -1.287341        -0.925763
 C        -0.826438        -1.359390         0.000626
 C        -0.096791        -0.039564        -0.032501
 O         1.146776        -0.003413        -0.136207
 C        -0.854551         1.243797         0.108750
 C        -1.809653         1.306777        -1.163614
 H        -4.112493         0.600543        -0.533524
 H        -2.813082        -1.608621        -2.807660
 H        -1.246213        -0.710811        -3.233368
 H        -2.911907        -1.962205        -0.788142
 H        -0.996548        -1.404096         1.078052
 H        -0.077870        -2.169117        -0.078145
 H        -1.572025         1.094652         0.890379
 H        -0.228864         2.081895         0.165534
 H        -2.521950         2.104184        -1.084836
 H        -1.100616         1.630390        -2.061832
