19
Iteration:    20
 O        -4.006741         0.149274        -1.536259
 C        -2.500958         0.046270        -1.438944
 C        -2.133797        -1.008468        -2.474077
 C        -2.145045        -1.311884        -0.896873
 C        -0.893264        -1.246479         0.111000
 C        -0.029739        -0.001302        -0.007671
 O         1.164261        -0.080629        -0.106456
 C        -0.679232         1.380764         0.002428
 C        -1.716727         1.327956        -1.125568
 H        -4.364227        -0.152506        -0.672970
 H        -3.003027        -1.295284        -3.078649
 H        -1.269475        -1.215058        -2.996877
 H        -2.943477        -1.893936        -0.484044
 H        -1.378034        -1.063160         1.112335
 H        -0.196508        -2.061462         0.178629
 H        -1.018797         1.779041         0.981764
 H         0.042427         2.154023        -0.350451
 H        -2.509926         2.129875        -1.206658
 H        -1.253164         1.551479        -2.054658
