19
Iteration:  4089charge 0 multiplicity 1
 O        -3.991947         0.368468        -1.122138
 C        -2.577968         0.043050        -1.476273
 C        -2.395441        -1.073083        -2.498337
 C        -2.010784        -1.255552        -1.019901
 C        -0.573601        -1.353687        -0.519024
 C         0.048163        -0.005943        -0.009660
 O         1.109261         0.107527         0.513650
 C        -0.897276         1.198658        -0.142477
 C        -1.686232         1.221010        -1.392806
 H        -4.162513         0.230790        -0.227888
 H        -3.386243        -1.611491        -2.481606
 H        -1.655279        -1.222658        -3.197764
 H        -2.626207        -2.007381        -0.511712
 H        -0.335707        -1.963885         0.368700
 H         0.176031        -1.755861        -1.227049
 H        -1.608181         1.174297         0.737634
 H        -0.283462         2.151254        -0.024516
 H        -2.393597         2.134503        -1.577687
 H        -1.047848         1.251642        -2.204165
