19
Iteration:  4853
 O        -4.021088         0.121799        -1.123172
 C        -2.653155         0.054981        -1.359281
 C        -2.283144        -0.748181        -2.560930
 C        -2.027691        -1.274817        -1.074303
 C        -0.541190        -1.335139        -0.643537
 C         0.080209        -0.039474        -0.047003
 O         0.813899        -0.048855         0.936980
 C        -0.376874         1.167884        -0.825136
 C        -1.945638         1.314593        -0.902892
 H        -4.256163         0.937523        -0.738179
 H        -3.186729        -1.045459        -3.130503
 H        -1.485223        -0.587179        -3.151403
 H        -2.698051        -2.088732        -0.705704
 H        -0.365795        -2.083928         0.115907
 H         0.162277        -1.520971        -1.593241
 H         0.292634         2.094684        -0.456939
 H        -0.188977         1.099251        -1.879568
 H        -2.255623         1.465874         0.131762
 H        -2.309292         2.153882        -1.415999
