19
Iteration:   417
 O        -3.934788         0.465008        -1.324552
 C        -2.636756        -0.002619        -1.424172
 C        -2.168244        -1.108354        -2.415170
 C        -2.058033        -1.345876        -0.917063
 C        -0.870093        -1.287192        -0.051848
 C        -0.019331         0.025613         0.006804
 O         1.193284        -0.009983         0.019623
 C        -0.779313         1.268629        -0.019594
 C        -1.706521         1.259974        -1.345325
 H        -4.438268        -0.275324        -1.476414
 H        -2.810969        -1.859041        -2.910762
 H        -1.263190        -0.888035        -3.003693
 H        -2.787968        -2.071686        -0.654135
 H        -1.278718        -1.421743         0.990725
 H        -0.232775        -2.153844        -0.343640
 H        -1.547777         1.209158         0.839317
 H        -0.115005         2.157617         0.172441
 H        -2.366557         2.192253        -1.357821
 H        -0.993169         1.399072        -2.177688
