19
Iteration:  3342
 O        -4.002745         0.195460        -1.507400
 C        -2.582086         0.093577        -1.432531
 C        -2.128217        -1.026431        -2.328961
 C        -2.142222        -1.277250        -0.839691
 C        -0.745343        -1.327023        -0.183174
 C        -0.029783        -0.043710        -0.114898
 O         1.207297         0.027613         0.019984
 C        -0.817407         1.187970         0.038526
 C        -1.744612         1.388191        -1.188402
 H        -4.539932         0.348622        -0.714498
 H        -2.869965        -1.531116        -3.009726
 H        -1.168573        -0.801136        -2.621606
 H        -3.023477        -1.818582        -0.502103
 H        -0.614544        -1.551997         0.850467
 H        -0.045218        -2.020970        -0.669653
 H        -1.398722         1.078080         0.938846
 H        -0.148139         2.058637         0.172852
 H        -2.514853         2.208012        -0.806681
 H        -1.234067         1.794483        -2.059875
