19
Iteration:  1876
 O        -4.009322         0.300459        -1.285852
 C        -2.652434         0.032057        -1.377238
 C        -2.125367        -0.932623        -2.426039
 C        -2.120598        -1.244632        -0.973278
 C        -0.756233        -1.338101        -0.135211
 C         0.058762        -0.065246        -0.036623
 O         1.204410        -0.073874         0.313677
 C        -0.709023         1.274411        -0.225754
 C        -1.860548         1.268462        -1.290897
 H        -4.401090        -0.010146        -2.026914
 H        -2.944844        -1.362958        -2.997539
 H        -1.206014        -0.650258        -2.957317
 H        -2.939934        -1.841235        -0.589534
 H        -0.786434        -1.834625         0.831578
 H        -0.083200        -1.968555        -0.720033
 H        -1.347925         1.352640         0.640119
 H        -0.097387         2.102943        -0.438266
 H        -2.435937         2.257089        -1.164085
 H        -1.453225         1.675280        -2.222612
