19
Iteration:   434
 O        -4.056899         0.494729        -1.434356
 C        -2.606656        -0.034971        -1.390979
 C        -2.131135        -1.008867        -2.348436
 C        -2.168094        -1.366416        -0.875325
 C        -0.712609        -1.373670        -0.104361
 C        -0.026038        -0.038405        -0.016658
 O         1.192279         0.019201         0.075905
 C        -0.841522         1.354979        -0.061831
 C        -1.662692         1.164079        -1.282075
 H        -4.557927        -0.022150        -0.925734
 H        -2.857780        -1.330693        -3.047155
 H        -1.136027        -0.868647        -2.864992
 H        -2.959382        -2.107252        -0.541504
 H        -0.858019        -1.788472         0.898881
 H         0.050714        -2.061641        -0.478513
 H        -1.385881         1.583414         0.814733
 H        -0.106119         2.079343        -0.314050
 H        -2.170933         2.077748        -1.461304
 H        -0.965804         1.143595        -2.185606
