19
Iteration:  2159charge 0 multiplicity 1
 O        -4.051223         0.195488        -1.268651
 C        -2.630259         0.053105        -1.469231
 C        -2.005428        -0.928467        -2.509523
 C        -2.066067        -1.265468        -0.950728
 C        -0.819569        -1.289583         0.026640
 C        -0.009641        -0.057992         0.028547
 O         1.220034        -0.087601         0.151213
 C        -0.713667         1.224086        -0.212637
 C        -1.880834         1.330739        -1.267678
 H        -4.588075         1.015038        -1.687159
 H        -2.599996        -1.571280        -3.242105
 H        -1.100072        -0.664707        -3.033623
 H        -2.839639        -2.017762        -0.716811
 H        -1.264475        -1.295848         1.041981
 H        -0.094047        -2.100501        -0.118158
 H        -1.149773         1.614346         0.767873
 H         0.092194         1.908467        -0.457043
 H        -2.628347         1.986852        -0.933274
 H        -1.583000         1.870629        -2.276337
