19
Iteration:  3202charge 0 multiplicity 1
 O        -3.940686         0.257078        -1.705696
 C        -2.600555         0.019171        -1.358244
 C        -1.862512        -0.877852        -2.331550
 C        -2.082211        -1.344098        -0.805715
 C        -1.040890        -1.221172         0.139550
 C        -0.002422        -0.071552        -0.084513
 O         1.187394        -0.025312        -0.430005
 C        -0.763819         1.193673         0.065757
 C        -1.871189         1.316950        -0.927472
 H        -4.459937        -0.023125        -0.846869
 H        -2.418318        -1.498727        -3.072186
 H        -0.826327        -0.641323        -2.564561
 H        -2.706876        -2.198723        -0.570950
 H        -1.421271        -1.111745         1.193740
 H        -0.485603        -2.194447         0.224912
 H        -1.177367         1.247329         1.111167
 H        -0.088159         2.077572        -0.164559
 H        -2.605089         1.865916        -0.474010
 H        -1.633404         1.867426        -1.868868
