19
Iteration:  4986
 O        -4.080784         0.161365        -1.269722
 C        -2.654682        -0.004672        -1.373030
 C        -2.133502        -0.758235        -2.549971
 C        -2.044627        -1.306279        -1.117420
 C        -0.767623        -1.358807        -0.328795
 C         0.064670        -0.031836        -0.065968
 O         1.109080        -0.072958         0.480207
 C        -0.463996         1.322296        -0.531375
 C        -2.009496         1.253432        -0.818590
 H        -4.215177         1.080104        -1.519046
 H        -2.942232        -1.070176        -3.147560
 H        -1.147080        -0.396400        -2.879649
 H        -2.667057        -2.178538        -0.945089
 H        -0.996080        -1.669721         0.650126
 H        -0.109578        -2.186439        -0.664348
 H        -0.134380         2.000909         0.336293
 H         0.159817         1.540357        -1.355290
 H        -2.399540         1.326573         0.243835
 H        -2.458254         2.018193        -1.448846
