19
Iteration:   283
 O        -4.042044         0.147526        -1.678996
 C        -2.552323         0.130276        -1.421313
 C        -1.907292        -1.045001        -2.210019
 C        -2.197884        -1.127262        -0.671498
 C        -0.906937        -1.307338         0.004643
 C         0.009485        -0.042440        -0.078760
 O         1.219396        -0.133522        -0.222863
 C        -0.753848         1.295518        -0.013750
 C        -1.807324         1.436549        -1.193926
 H        -4.556232        -0.179263        -0.799327
 H        -2.775210        -1.456733        -2.773965
 H        -0.876356        -1.180711        -2.367669
 H        -3.105590        -1.724819        -0.353913
 H        -1.033082        -1.504907         1.096588
 H        -0.540471        -2.208820        -0.446635
 H        -1.386058         1.289753         0.932016
 H        -0.021907         2.083241         0.163053
 H        -2.477918         2.127704        -0.748171
 H        -1.229301         1.726436        -2.080469
