19
Iteration:  4345
 O        -3.944979         0.235948        -1.747512
 C        -2.566759        -0.004286        -1.326040
 C        -1.828804        -0.929152        -2.249175
 C        -1.999292        -1.281217        -0.852291
 C        -0.922057        -1.229380         0.138282
 C         0.020517        -0.038966        -0.122877
 O         1.111280        -0.107437        -0.553296
 C        -0.823397         1.239386         0.258850
 C        -1.982100         1.346124        -0.958350
 H        -4.450493         0.422990        -0.914284
 H        -2.528654        -1.496055        -2.902508
 H        -0.801784        -0.687786        -2.721489
 H        -2.620512        -2.143240        -0.552039
 H        -1.264680        -1.135291         1.200449
 H        -0.354392        -2.107745        -0.047788
 H        -1.357095         1.150854         1.238066
 H        -0.132772         2.120451         0.307333
 H        -2.812971         1.831236        -0.473527
 H        -1.672966         2.032430        -1.816620
