19
Iteration:  2487
 O        -4.036080         0.307115        -1.246170
 C        -2.628402         0.095095        -1.438915
 C        -2.065311        -1.052633        -2.388118
 C        -2.098263        -1.280040        -0.988899
 C        -0.736832        -1.337218        -0.140822
 C        -0.007641        -0.059006         0.006567
 O         1.232226        -0.019778         0.201507
 C        -0.810448         1.241908        -0.150978
 C        -1.836621         1.384648        -1.314857
 H        -4.603063         0.174810        -2.073280
 H        -2.871799        -1.592845        -3.053993
 H        -1.066718        -0.961092        -2.897272
 H        -2.622125        -2.230953        -0.712596
 H        -1.052284        -1.748285         0.807934
 H         0.009863        -2.124355        -0.424391
 H        -1.391990         1.410607         0.787772
 H         0.092064         1.974781        -0.280074
 H        -2.432345         2.199639        -0.987553
 H        -1.558962         1.672266        -2.244605
