19
Iteration:  1925charge 0 multiplicity 1
 O        -3.963742         0.260746        -1.380669
 C        -2.577898         0.005158        -1.438651
 C        -2.223835        -1.049299        -2.367833
 C        -2.172763        -1.214549        -0.887358
 C        -0.814359        -1.296726        -0.207625
 C         0.039598         0.067862        -0.047780
 O         1.267119        -0.045611         0.147721
 C        -0.804057         1.244851        -0.023725
 C        -1.723470         1.310866        -1.212433
 H        -4.347030         0.568454        -2.334319
 H        -3.090069        -1.673720        -2.787721
 H        -1.288615        -1.068056        -2.851603
 H        -2.908329        -1.872504        -0.392534
 H        -0.922430        -1.774404         0.795085
 H        -0.169328        -1.976597        -0.804115
 H        -1.582027         0.806847         0.692938
 H        -0.332209         2.260460         0.184105
 H        -2.396176         2.088018        -1.310965
 H        -1.051892         1.663580        -2.028274
