19
Iteration:  1723charge 0 multiplicity 1
 O        -3.935233         0.374203        -1.364850
 C        -2.510870         0.078939        -1.455306
 C        -2.156790        -1.124334        -2.378973
 C        -2.170627        -1.296141        -0.888659
 C        -0.771213        -1.310190        -0.179532
 C        -0.022197        -0.016151        -0.007870
 O         1.164918         0.064567        -0.041298
 C        -0.949242         1.198662         0.097097
 C        -1.619822         1.278861        -1.223608
 H        -4.402199        -0.026565        -2.044335
 H        -3.125265        -1.503657        -3.009122
 H        -1.142609        -1.131268        -2.863743
 H        -2.965526        -1.878680        -0.398650
 H        -1.079168        -1.502914         0.907673
 H        -0.108382        -2.130958        -0.523494
 H        -1.800615         1.197762         0.934406
 H        -0.267235         2.004463         0.423523
 H        -2.137576         2.273679        -1.279276
 H        -0.795684         1.250876        -2.005291
