19
Iteration:  3598
 O        -4.004057         0.253597        -1.131346
 C        -2.606121         0.072046        -1.525499
 C        -2.423649        -1.054984        -2.453822
 C        -2.035947        -1.241060        -0.961275
 C        -0.593937        -1.337411        -0.570945
 C        -0.005508         0.027340         0.106339
 O         1.149106         0.042267         0.616715
 C        -0.808547         1.329791        -0.176896
 C        -1.678980         1.189907        -1.482033
 H        -4.004524         0.051519        -0.240475
 H        -3.311968        -1.625444        -2.741605
 H        -1.716662        -1.118280        -3.331977
 H        -2.699721        -1.648134        -0.202883
 H        -0.275987        -2.265667        -0.200785
 H        -0.123049        -1.285578        -1.570551
 H        -1.439005         1.415171         0.768269
 H        -0.089273         2.133525        -0.137946
 H        -2.267130         2.036470        -1.640879
 H        -1.126318         1.030528        -2.469718
