19
Iteration:  4641
 O        -4.121054         0.160961        -1.220437
 C        -2.692983         0.077088        -1.293460
 C        -2.189923        -0.686948        -2.558157
 C        -2.000869        -1.257350        -1.087368
 C        -0.600245        -1.372909        -0.396076
 C         0.072647        -0.074548        -0.033429
 O         1.032585        -0.010012         0.755280
 C        -0.492922         1.126565        -0.735494
 C        -1.994535         1.313269        -1.035539
 H        -4.384166        -0.096051        -0.358712
 H        -2.895831        -1.395110        -3.169573
 H        -1.231523        -0.295425        -3.009592
 H        -2.781843        -1.982880        -0.875530
 H        -0.567663        -2.055558         0.583424
 H         0.146564        -1.794612        -1.195023
 H        -0.336133         2.059454        -0.269763
 H         0.159108         1.156553        -1.636395
 H        -2.264979         1.685757         0.000406
 H        -2.215467         2.079542        -1.724717
