19
Iteration:  3820charge 0 multiplicity 1
 O        -3.781611         0.330544        -0.705312
 C        -2.591836         0.010853        -1.493820
 C        -2.609674        -1.118402        -2.384130
 C        -1.757527        -1.364767        -1.114788
 C        -0.321527        -1.200819        -0.998559
 C        -0.102394         0.012660         0.043366
 O         0.503136         0.000973         1.069249
 C        -0.678428         1.259519        -0.558515
 C        -1.671515         1.230891        -1.641734
 H        -3.583900         0.667150         0.145109
 H        -3.558979        -1.546791        -2.411760
 H        -1.866093        -1.152820        -3.238606
 H        -2.282632        -1.977503        -0.335536
 H         0.287880        -2.063047        -0.511573
 H         0.112481        -0.950137        -1.988099
 H        -1.273733         1.754885         0.268467
 H         0.262303         1.855614        -0.577549
 H        -2.193311         2.084110        -1.433942
 H        -1.237137         1.341994        -2.713260
