19
Iteration:  4188
 O        -4.077482         0.253828        -1.397032
 C        -2.698808         0.027726        -1.445156
 C        -2.182463        -0.940896        -2.405146
 C        -2.066240        -1.220743        -0.889932
 C        -0.678804        -1.349000        -0.249785
 C         0.117230        -0.036767        -0.064106
 O         1.246842         0.047253         0.160144
 C        -0.841683         1.159193        -0.055353
 C        -1.801075         1.326659        -1.258951
 H        -4.451491         0.039832        -0.548455
 H        -2.690560        -1.709873        -2.895044
 H        -1.155106        -0.757623        -2.732923
 H        -2.806792        -1.937927        -0.534633
 H        -0.894500        -1.619651         0.825986
 H        -0.025145        -2.210697        -0.548931
 H        -1.376176         1.215682         0.935514
 H        -0.126388         2.017642        -0.049614
 H        -2.519570         2.160968        -0.906904
 H        -1.403900         1.674808        -2.138923
