19
Iteration:  2760charge 0 multiplicity 1
 O        -4.051757         0.221069        -1.328632
 C        -2.627104         0.102571        -1.461364
 C        -2.193148        -0.866229        -2.486120
 C        -2.025601        -1.270479        -0.893922
 C        -0.724391        -1.437276        -0.139509
 C        -0.035509        -0.058580        -0.011347
 O         1.206458         0.017138         0.212792
 C        -0.803059         1.173562        -0.128740
 C        -1.780420         1.344094        -1.329574
 H        -4.266006         0.391820        -0.455353
 H        -2.845262        -1.644944        -2.998977
 H        -1.282047        -0.664264        -2.982444
 H        -2.940645        -1.721689        -0.510646
 H        -0.780152        -1.881326         0.895636
 H         0.126483        -1.932129        -0.666724
 H        -1.410607         1.346971         0.773966
 H        -0.078776         2.019333        -0.144143
 H        -2.243557         2.392796        -1.153616
 H        -1.050844         1.308536        -2.294179
