19
Iteration:  4533
 O        -4.083059         0.111051        -1.544821
 C        -2.713750         0.022297        -1.317251
 C        -2.007202        -0.580346        -2.454348
 C        -2.046759        -1.257562        -0.995736
 C        -0.810555        -1.285337        -0.068961
 C         0.055539        -0.097885        -0.128651
 O         1.200704        -0.061821         0.341705
 C        -0.550043         1.161218        -0.689259
 C        -2.038520         1.239205        -0.646594
 H        -4.548886         0.264300        -0.714678
 H        -2.489392        -1.137986        -3.379819
 H        -1.064852        -0.204242        -2.868371
 H        -2.416276        -2.286797        -0.953459
 H        -1.142574        -1.364339         0.949615
 H        -0.199708        -2.122887        -0.113152
 H        -0.125367         2.076240        -0.300434
 H        -0.348077         1.216142        -1.824546
 H        -2.442944         1.393791         0.394614
 H        -2.333878         2.231412        -1.125652
