19
Iteration:  3752charge 0 multiplicity 1
 O        -3.887346         0.242834        -0.863666
 C        -2.593765         0.057678        -1.410918
 C        -2.570798        -1.200925        -2.448373
 C        -1.895039        -1.242372        -1.018106
 C        -0.367220        -1.193738        -0.940513
 C        -0.060523        -0.003251        -0.002336
 O         0.636116        -0.031950         1.043330
 C        -0.583125         1.336601        -0.494641
 C        -1.657146         1.252322        -1.555966
 H        -3.718767         0.511174         0.078071
 H        -3.607524        -1.666622        -2.556591
 H        -1.896699        -1.249554        -3.257373
 H        -2.264101        -1.670506        -0.048661
 H         0.085693        -2.202015        -0.772867
 H         0.031275        -0.906064        -1.951148
 H        -1.095748         1.845021         0.358689
 H         0.162610         2.038672        -0.827215
 H        -2.225187         2.122152        -1.628182
 H        -1.300134         1.004294        -2.571085
