19
Iteration:  2175charge 0 multiplicity 1
 O        -3.998766         0.031345        -1.293343
 C        -2.599426         0.046894        -1.485276
 C        -2.076718        -0.924900        -2.449874
 C        -2.002794        -1.197361        -0.966235
 C        -0.954076        -1.311099         0.032214
 C        -0.057666        -0.082568        -0.083561
 O         1.173848        -0.052061         0.120701
 C        -0.696391         1.292540        -0.197947
 C        -1.760867         1.393021        -1.208960
 H        -4.133535         1.027479        -1.500308
 H        -2.823390        -1.475749        -2.989656
 H        -1.111371        -0.745266        -3.042649
 H        -2.882604        -1.798268        -0.743384
 H        -1.399606        -1.334454         1.054202
 H        -0.381358        -2.259732        -0.014639
 H        -1.069649         1.399278         0.883809
 H         0.079585         2.106837        -0.284154
 H        -2.477062         2.347220        -0.925598
 H        -1.387989         1.730555        -2.156093
