19
Iteration:  3673
 O        -3.872574         0.311526        -0.896871
 C        -2.622034         0.067992        -1.547345
 C        -2.567929        -1.158692        -2.456660
 C        -2.014156        -1.245456        -1.084570
 C        -0.477098        -1.232889        -0.736949
 C        -0.061534         0.013572         0.059968
 O         0.920239         0.071180         0.829123
 C        -0.751849         1.285774        -0.268322
 C        -1.560536         1.133487        -1.595686
 H        -3.835748         0.134564         0.127188
 H        -3.501383        -1.584958        -2.703870
 H        -1.756446        -1.215683        -3.283741
 H        -2.498366        -1.918205        -0.394381
 H        -0.115336        -2.128550        -0.318106
 H         0.020906        -1.011765        -1.735507
 H        -1.478179         1.351485         0.612910
 H        -0.245218         2.237850        -0.231972
 H        -2.260345         1.966597        -1.743478
 H        -1.000160         0.966183        -2.453372
