19
Iteration:   782charge 0 multiplicity 1
 O        -3.749385         0.424999        -0.753687
 C        -2.610209         0.083006        -1.446950
 C        -2.500030        -1.197336        -2.349589
 C        -1.848051        -1.270199        -1.007432
 C        -0.368886        -1.299768        -0.901502
 C        -0.106771        -0.004810        -0.084372
 O         0.463428        -0.122139         1.019899
 C        -0.693831         1.389743        -0.503882
 C        -1.577455         1.209673        -1.720915
 H        -3.580695         0.502094         0.307278
 H        -3.383354        -1.782680        -2.409295
 H        -1.989288        -1.305586        -3.378183
 H        -2.322471        -1.847253        -0.263633
 H         0.170188        -1.941329        -0.248718
 H        -0.099109        -1.204276        -1.968732
 H        -1.291463         1.764078         0.330923
 H         0.014320         2.182698        -0.622527
 H        -1.995707         2.209665        -1.931144
 H        -1.066494         0.933180        -2.652734
