19
Iteration:   682charge 0 multiplicity 1
 O        -3.920741         0.306345        -1.017631
 C        -2.500623         0.083740        -1.460677
 C        -2.551096        -1.161377        -2.349824
 C        -1.979107        -1.226968        -0.942397
 C        -0.437220        -1.355812        -0.793684
 C         0.025297        -0.038002        -0.062792
 O         0.755877        -0.003439         0.946070
 C        -0.660462         1.247488        -0.422161
 C        -1.658726         1.363653        -1.598073
 H        -3.840365         0.415608         0.013054
 H        -3.572129        -1.576046        -2.569448
 H        -1.791304        -1.274273        -3.063498
 H        -2.639127        -1.711190        -0.174649
 H        -0.287801        -2.208103        -0.154051
 H        -0.011386        -1.407599        -1.809315
 H        -1.234528         1.588458         0.432932
 H         0.068112         2.056520        -0.461298
 H        -2.267816         2.313574        -1.678876
 H        -1.214179         1.284167        -2.598129
