19
Iteration:  1899
 O        -4.021377         0.325766        -1.300486
 C        -2.595348         0.046143        -1.488729
 C        -2.138977        -1.048919        -2.355921
 C        -2.105136        -1.252115        -0.882251
 C        -0.689123        -1.429148        -0.239024
 C        -0.015983        -0.094731         0.000598
 O         1.147551        -0.017622         0.208079
 C        -0.763478         1.232788        -0.091928
 C        -1.791151         1.452475        -1.299260
 H        -4.573192         0.114565        -2.179484
 H        -2.883589        -1.618171        -2.785455
 H        -1.120969        -0.885080        -2.843688
 H        -2.866526        -1.853038        -0.415450
 H        -0.770133        -1.736357         0.787504
 H        -0.036598        -2.129061        -0.756484
 H        -1.300745         1.537282         0.794456
 H         0.087514         1.812536        -0.330606
 H        -2.656199         2.165447        -1.229922
 H        -1.271020         2.064063        -2.070174
