19
Iteration:  2183charge 0 multiplicity 1
 O        -3.943984         0.020340        -1.318572
 C        -2.581305         0.093026        -1.453942
 C        -2.048366        -0.942691        -2.410053
 C        -2.083906        -1.254606        -0.957019
 C        -0.980704        -1.316673         0.001645
 C         0.018811        -0.044997        -0.078074
 O         1.183323        -0.090971         0.096139
 C        -0.717821         1.319073        -0.159793
 C        -1.784817         1.430629        -1.201766
 H        -4.508277         0.810541        -1.454341
 H        -2.815035        -1.415160        -2.967806
 H        -1.231428        -0.700098        -3.228300
 H        -2.913985        -1.864986        -0.663032
 H        -1.547381        -1.202095         0.970372
 H        -0.302723        -2.194116        -0.041283
 H        -1.210194         1.413895         0.947105
 H         0.034971         2.169961        -0.264406
 H        -2.484420         2.320072        -1.170252
 H        -1.268992         1.651050        -2.255384
