19
Iteration:  4654charge 0 multiplicity 1
 O        -4.109050         0.176519        -1.197422
 C        -2.721520         0.000860        -1.429399
 C        -2.271212        -0.752346        -2.576917
 C        -1.985588        -1.298884        -1.105341
 C        -0.585285        -1.396829        -0.419538
 C         0.113300        -0.040155         0.015970
 O         0.991619        -0.010862         0.798044
 C        -0.412575         1.258462        -0.766460
 C        -1.992063         1.299335        -0.936762
 H        -4.194344         0.438066        -0.203606
 H        -3.004914        -1.153154        -3.181582
 H        -1.451917        -0.290442        -3.182636
 H        -2.578062        -2.144458        -0.833318
 H        -0.661364        -2.081878         0.497056
 H         0.108518        -1.942034        -1.093731
 H         0.104461         2.071783        -0.169517
 H         0.023140         1.208861        -1.814001
 H        -2.579350         1.592706        -0.032420
 H        -2.201338         2.080850        -1.745404
