19
Iteration:  4713
 O        -4.073441         0.099188        -0.993457
 C        -2.658805         0.086082        -1.267394
 C        -2.077486        -0.713885        -2.518743
 C        -1.959414        -1.270927        -1.127813
 C        -0.596113        -1.446371        -0.613405
 C         0.037036        -0.049732        -0.088238
 O         0.695593         0.073231         0.856713
 C        -0.375308         1.110695        -0.984026
 C        -1.936597         1.348128        -0.810922
 H        -4.435340         0.511547        -1.760245
 H        -2.863675        -1.105579        -3.277534
 H        -1.150167        -0.457371        -2.937224
 H        -2.694822        -2.050612        -0.770643
 H        -0.623452        -2.067877         0.214591
 H        -0.013154        -1.890160        -1.387488
 H         0.337671         1.891064        -0.505172
 H         0.000429         0.938137        -2.041734
 H        -2.102193         1.619435         0.253463
 H        -2.191646         2.361259        -1.427001
