19
Iteration:  4619
 O        -4.129835         0.109402        -1.249002
 C        -2.691590         0.093848        -1.336379
 C        -2.056472        -0.708581        -2.457097
 C        -2.010191        -1.283804        -1.006262
 C        -0.681154        -1.406909        -0.384770
 C         0.015868        -0.076152        -0.047273
 O         0.976054        -0.040439         0.605483
 C        -0.384365         1.228365        -0.709286
 C        -2.007271         1.425488        -0.920316
 H        -4.259616        -0.731332        -0.669357
 H        -2.897482        -1.178550        -3.217410
 H        -1.128082        -0.213817        -2.833342
 H        -2.695494        -2.139683        -0.842560
 H        -0.824800        -2.084387         0.609356
 H         0.026611        -1.978880        -1.126921
 H         0.110007         2.101977        -0.389661
 H        -0.046905         1.087370        -1.776381
 H        -2.554540         2.012843        -0.085871
 H        -2.061772         2.034791        -1.806457
