19
Iteration:  2146charge 0 multiplicity 1
 O        -4.069424         0.269935        -1.270180
 C        -2.698570        -0.007484        -1.497241
 C        -1.984819        -0.938976        -2.408311
 C        -2.046348        -1.284998        -0.979823
 C        -0.854443        -1.315758        -0.048793
 C         0.090196        -0.027740         0.014152
 O         1.272328        -0.128731         0.198721
 C        -0.758540         1.336991        -0.250401
 C        -1.950392         1.315527        -1.238485
 H        -4.190066         0.756837        -2.053538
 H        -2.659008        -1.580356        -3.038131
 H        -1.106425        -0.475105        -2.697453
 H        -2.783173        -2.096074        -0.743824
 H        -1.188258        -1.571685         0.953406
 H        -0.244404        -2.196099        -0.297892
 H        -1.128741         1.545092         0.726183
 H        -0.090886         2.108297        -0.542362
 H        -2.548052         2.026110        -0.816010
 H        -1.434483         1.566594        -2.227951
