19
Iteration:  1298
 O        -3.965721         0.120440        -1.735333
 C        -2.597804         0.120575        -1.384314
 C        -1.843055        -0.926999        -2.225106
 C        -2.099042        -1.151350        -0.758747
 C        -0.952220        -1.301374         0.086388
 C        -0.054968        -0.100792        -0.130903
 O         1.119317        -0.127210        -0.377558
 C        -0.746399         1.237647         0.138498
 C        -1.838675         1.395367        -1.014547
 H        -4.454242         0.529390        -0.920148
 H        -2.446812        -1.374313        -2.975994
 H        -0.769115        -0.656906        -2.490143
 H        -2.990447        -1.828254        -0.681834
 H        -1.295467        -1.477072         1.144459
 H        -0.280383        -2.213562        -0.018964
 H        -1.425098         1.223511         1.042720
 H        -0.021492         2.048812         0.303120
 H        -2.461105         2.282416        -0.948057
 H        -1.289753         1.568693        -2.009754
