19
Iteration:  3945
 O        -3.938090         0.230838        -0.890233
 C        -2.551248         0.046882        -1.367012
 C        -2.525218        -1.111681        -2.476552
 C        -1.920460        -1.269510        -0.963949
 C        -0.418326        -1.163523        -0.840277
 C        -0.064832         0.067048        -0.029278
 O         0.762936        -0.064040         0.951552
 C        -0.666486         1.319366        -0.465858
 C        -1.701405         1.187628        -1.603563
 H        -3.914976        -0.069374        -0.029240
 H        -3.528919        -1.220213        -2.807225
 H        -1.636102        -0.861217        -3.132261
 H        -2.476628        -1.873974        -0.188443
 H        -0.092990        -2.031645        -0.322848
 H         0.110604        -1.283361        -1.799738
 H        -1.042986         1.718225         0.507874
 H         0.249731         2.015947        -0.716746
 H        -2.129112         2.290813        -1.820236
 H        -1.140569         1.008263        -2.470899
