19
Iteration:   194
 O        -4.017481         0.076784        -1.611940
 C        -2.630568         0.096751        -1.414212
 C        -1.969996        -0.944744        -2.247161
 C        -2.111780        -1.231733        -0.731427
 C        -0.870105        -1.285511         0.039694
 C        -0.048381        -0.023593        -0.073542
 O         1.130350        -0.245415        -0.188818
 C        -0.726596         1.405084        -0.017118
 C        -1.737730         1.474699        -1.224589
 H        -4.400676         0.067753        -0.599947
 H        -2.516162        -1.459795        -2.947883
 H        -1.012350        -0.598664        -2.535993
 H        -2.899109        -1.912179        -0.506299
 H        -1.078144        -1.323590         1.126801
 H        -0.332117        -2.171870        -0.219090
 H        -1.264659         1.509005         0.945660
 H         0.015859         2.222922        -0.100223
 H        -2.525292         2.094296        -0.977522
 H        -1.215761         1.647872        -2.171052
