19
Iteration:  4349
 O        -3.976291         0.242182        -1.747601
 C        -2.604867         0.018041        -1.334278
 C        -1.815766        -0.912254        -2.234571
 C        -1.974343        -1.334079        -0.874295
 C        -0.913191        -1.214636         0.157346
 C        -0.018213        -0.042624        -0.104863
 O         1.154478        -0.117046        -0.564021
 C        -0.817273         1.242118         0.250134
 C        -1.985572         1.331289        -0.967563
 H        -4.342497         0.455356        -0.881494
 H        -2.443041        -1.383843        -2.938090
 H        -0.811089        -0.748649        -2.628222
 H        -2.642686        -2.106379        -0.570904
 H        -1.285976        -1.030447         1.242407
 H        -0.324232        -2.175098        -0.037156
 H        -1.344263         1.159343         1.203345
 H        -0.093654         2.107436         0.374036
 H        -2.850292         1.846513        -0.553867
 H        -1.721532         2.091782        -1.762654
