19
Iteration:  3387
 O        -4.073897         0.256305        -1.322781
 C        -2.706177         0.016325        -1.567684
 C        -2.222094        -0.991878        -2.480399
 C        -1.988507        -1.300003        -0.951683
 C        -0.693054        -1.367754        -0.134520
 C         0.021131        -0.004549         0.079746
 O         1.229364         0.010980         0.145296
 C        -0.800132         1.252121        -0.022934
 C        -1.746871         1.327514        -1.303621
 H        -3.993573         0.713077        -0.450373
 H        -3.013741        -1.533338        -2.987208
 H        -1.409310        -0.552703        -3.081353
 H        -2.614626        -2.129181        -0.664955
 H        -1.052692        -1.717138         0.800407
 H         0.032991        -2.085872        -0.550781
 H        -1.394792         1.318627         0.872617
 H        -0.058764         2.084854         0.143101
 H        -2.520997         2.193857        -1.132016
 H        -1.395900         1.527311        -2.335362
