19
Iteration:   110
 O        -3.940840         0.122940        -1.669178
 C        -2.625765         0.053585        -1.429808
 C        -2.166824        -1.038832        -2.281271
 C        -2.203847        -1.224122        -0.788207
 C        -0.812792        -1.258870        -0.024021
 C         0.029346        -0.040058        -0.059238
 O         1.257378        -0.147581        -0.032444
 C        -0.667833         1.384897        -0.081118
 C        -1.911886         1.385768        -1.103829
 H        -4.421503         0.415940        -0.835055
 H        -2.801426        -1.665876        -2.821038
 H        -1.185807        -0.891106        -2.733105
 H        -3.015591        -1.854809        -0.410570
 H        -0.983159        -1.234903         1.088429
 H        -0.171080        -2.110835        -0.272092
 H        -0.783188         1.783670         0.947488
 H         0.124355         2.007862        -0.479547
 H        -2.598925         2.190017        -0.930974
 H        -1.473825         1.873996        -1.931386
