19
Iteration:   686
 O        -3.863006         0.300830        -0.994602
 C        -2.544918         0.084420        -1.445929
 C        -2.543882        -1.146581        -2.372248
 C        -1.998005        -1.208613        -0.908128
 C        -0.423710        -1.375729        -0.777001
 C         0.025423        -0.020049        -0.082671
 O         0.721330        -0.013355         0.934543
 C        -0.676705         1.260872        -0.440265
 C        -1.669708         1.351823        -1.615734
 H        -3.905137         0.442880        -0.016192
 H        -3.472900        -1.634741        -2.670105
 H        -1.744990        -1.259873        -3.174123
 H        -2.591879        -1.695376        -0.173363
 H        -0.227948        -2.276179        -0.174001
 H         0.015278        -1.392839        -1.781701
 H        -1.196517         1.552490         0.534872
 H         0.132702         2.017924        -0.428102
 H        -2.190423         2.266416        -1.645518
 H        -1.147792         1.307118        -2.570218
