19
Iteration:  1294
 O        -3.979863         0.110800        -1.719602
 C        -2.572773         0.124840        -1.406675
 C        -1.820753        -0.932471        -2.259956
 C        -2.106668        -1.138001        -0.722274
 C        -0.967568        -1.283222         0.074682
 C        -0.057036        -0.120771        -0.147931
 O         1.128910        -0.138614        -0.367098
 C        -0.765517         1.227134         0.148381
 C        -1.853602         1.432751        -1.031168
 H        -4.425642         0.450244        -0.877215
 H        -2.495021        -1.391206        -2.985340
 H        -0.828217        -0.699614        -2.610944
 H        -2.810306        -1.926683        -0.570634
 H        -1.232737        -1.463208         1.087134
 H        -0.379944        -2.180584         0.012684
 H        -1.326410         1.216104         1.047903
 H        -0.206994         2.131334         0.336395
 H        -2.337605         2.418293        -0.871477
 H        -1.178754         1.438965        -1.869047
