19
Iteration:  4328charge 0 multiplicity 1
 O        -3.869065         0.155313        -1.753220
 C        -2.554422         0.092358        -1.410019
 C        -1.901917        -0.942181        -2.315345
 C        -2.135469        -1.260044        -0.763451
 C        -0.822757        -1.335387         0.150542
 C        -0.042353        -0.016873        -0.064508
 O         1.050740        -0.035887        -0.544131
 C        -0.831220         1.238220         0.141432
 C        -1.895524         1.339490        -0.823634
 H        -4.291688         0.236737        -0.905486
 H        -2.488109        -1.409268        -3.042231
 H        -0.866559        -0.829433        -2.662475
 H        -2.994484        -1.898783        -0.592219
 H        -1.102290        -1.336199         1.241817
 H        -0.102482        -2.162317        -0.213407
 H        -1.223646         1.183411         1.149327
 H        -0.128489         2.111178         0.198454
 H        -2.682020         2.121383        -0.616547
 H        -1.386187         1.959544        -1.611696
