19
Iteration:  3258charge 0 multiplicity 1
 O        -3.984594         0.166986        -1.589331
 C        -2.585418         0.120228        -1.426676
 C        -1.880769        -0.860665        -2.312368
 C        -2.069652        -1.219606        -0.766849
 C        -0.828119        -1.408892         0.094436
 C        -0.054739        -0.122418        -0.003834
 O         1.106929        -0.046385        -0.330056
 C        -0.832414         1.226343        -0.004297
 C        -1.864802         1.374567        -1.085624
 H        -4.280092         0.566136        -0.767278
 H        -2.283426        -1.258097        -3.323367
 H        -0.865583        -0.643159        -2.543104
 H        -2.851908        -1.899551        -0.502443
 H        -1.092742        -1.541791         1.188602
 H        -0.160203        -2.237753        -0.242388
 H        -1.457099         1.117749         0.950979
 H        -0.179018         2.142764         0.109638
 H        -2.529700         2.101130        -0.828080
 H        -1.431551         1.681965        -2.089105
