19
Iteration:   295
 O        -3.942651         0.113944        -1.712254
 C        -2.580555         0.163120        -1.462602
 C        -2.073870        -1.113066        -2.163622
 C        -2.237107        -1.078300        -0.714570
 C        -0.874490        -1.288902         0.045481
 C         0.040551        -0.088321        -0.127309
 O         1.267249        -0.084849        -0.195274
 C        -0.790672         1.180791        -0.023227
 C        -1.808508         1.507786        -1.102078
 H        -4.358803         0.091941        -0.782613
 H        -2.645118        -1.612486        -2.964245
 H        -1.061810        -1.123045        -2.591664
 H        -3.067055        -1.710705        -0.263748
 H        -1.107025        -1.438009         1.119566
 H        -0.212507        -2.094103        -0.245177
 H        -1.341778         0.968921         0.962368
 H        -0.153855         2.061298         0.025550
 H        -2.528013         2.337244        -0.992875
 H        -1.378614         1.932807        -1.992954
