19
Iteration:  4670
 O        -4.072467         0.133537        -1.161054
 C        -2.647696         0.049724        -1.340475
 C        -2.272629        -0.843103        -2.543705
 C        -1.967948        -1.338443        -1.228064
 C        -0.636088        -1.296955        -0.510081
 C         0.044073        -0.001998        -0.066359
 O         0.903584        -0.007471         0.830974
 C        -0.392989         1.221203        -0.758565
 C        -1.897714         1.308087        -0.871609
 H        -4.266060         0.927431        -0.582013
 H        -3.156566        -1.452073        -2.986542
 H        -1.553440        -0.640176        -3.297954
 H        -2.606879        -2.216839        -0.918842
 H        -0.754259        -1.799468         0.408722
 H         0.145634        -1.915788        -0.930233
 H        -0.063036         2.177715        -0.356604
 H         0.091459         1.216646        -1.744839
 H        -2.213871         1.542794         0.153123
 H        -2.241808         2.233973        -1.407454
