19
Iteration:   672
 O        -4.033650         0.332375        -1.080814
 C        -2.534965         0.076389        -1.521949
 C        -2.567688        -1.174016        -2.289581
 C        -1.929825        -1.274828        -1.013820
 C        -0.500510        -1.247306        -0.797638
 C         0.025331        -0.086323         0.054516
 O         0.858386        -0.008978         0.928826
 C        -0.638399         1.312249        -0.399037
 C        -1.616263         1.288715        -1.585521
 H        -3.863075         0.382648        -0.113421
 H        -3.673573        -1.419003        -2.287083
 H        -2.006525        -1.348081        -3.179485
 H        -2.486750        -1.742414        -0.171726
 H        -0.118739        -2.091109        -0.245908
 H         0.114691        -1.452998        -1.689742
 H        -1.278848         1.520529         0.480030
 H         0.142574         2.053102        -0.533787
 H        -2.336690         2.101704        -1.424877
 H        -1.113956         1.364094        -2.533121
