19
Iteration:  4999
 O        -4.048682         0.151698        -1.360974
 C        -2.630163         0.059547        -1.331938
 C        -2.046328        -0.738389        -2.515391
 C        -2.079673        -1.335110        -1.054249
 C        -0.775799        -1.322060        -0.290353
 C         0.043849        -0.043545        -0.083953
 O         1.162051        -0.129293         0.412617
 C        -0.574252         1.281678        -0.512782
 C        -2.026717         1.272984        -0.748642
 H        -4.333658         1.109214        -1.276793
 H        -2.732867        -1.405083        -3.197426
 H        -1.208954        -0.558586        -3.200117
 H        -2.913889        -2.034690        -0.736865
 H        -0.898076        -1.765568         0.695749
 H         0.017799        -1.933542        -0.937628
 H        -0.404065         2.141044         0.144794
 H        -0.038618         1.637274        -1.470720
 H        -2.617837         1.426306         0.128133
 H        -2.178558         2.190668        -1.310616
