19
Iteration:   226
 O        -3.957020         0.240898        -1.478865
 C        -2.574274        -0.021723        -1.546502
 C        -1.987894        -1.027694        -2.413366
 C        -2.079930        -1.237019        -0.901549
 C        -1.014844        -1.160990         0.282586
 C         0.001389        -0.023030        -0.032133
 O         1.194011        -0.128372        -0.265997
 C        -0.739980         1.246397        -0.028191
 C        -1.791849         1.346731        -1.141015
 H        -4.272098        -0.079332        -0.716954
 H        -2.519696        -1.636505        -3.052746
 H        -1.051594        -0.688662        -2.789353
 H        -2.809312        -1.972719        -0.685355
 H        -1.545878        -0.774879         1.168495
 H        -0.644942        -2.146943         0.516271
 H        -1.271174         1.260232         0.921551
 H        -0.018946         2.088353        -0.069948
 H        -2.521950         1.983902        -0.834390
 H        -1.444087         1.967867        -1.997996
