19
Iteration:  3391
 O        -4.050839         0.234025        -1.316144
 C        -2.669291        -0.012798        -1.574963
 C        -2.266753        -0.977562        -2.508712
 C        -1.966893        -1.271314        -0.939366
 C        -0.731993        -1.355943        -0.176568
 C         0.021437         0.009656         0.083473
 O         1.209050         0.015870         0.157864
 C        -0.789369         1.264838        -0.018263
 C        -1.748800         1.332014        -1.288458
 H        -4.039959         0.661205        -0.405715
 H        -3.119322        -1.584225        -2.813040
 H        -1.372069        -0.640522        -3.183862
 H        -2.651018        -2.118451        -0.727063
 H        -1.063119        -1.694261         0.880680
 H         0.000666        -2.133950        -0.480759
 H        -1.267742         1.215841         0.978383
 H        -0.086825         2.081853         0.022567
 H        -2.393818         2.123015        -1.133061
 H        -1.281598         1.504439        -2.331247
