19
Iteration:  2060
 O        -4.023390         0.318603        -1.396227
 C        -2.608303         0.000201        -1.359401
 C        -2.096042        -1.036859        -2.397713
 C        -2.099260        -1.298195        -0.844717
 C        -0.782020        -1.280956        -0.176931
 C        -0.022726         0.029620        -0.122583
 O         1.199727        -0.027337         0.107148
 C        -0.798377         1.234845        -0.013176
 C        -1.768637         1.251655        -1.226408
 H        -4.160610         1.069144        -2.122256
 H        -2.796944        -1.695727        -2.941818
 H        -1.176405        -0.875927        -2.964427
 H        -2.867597        -2.041671        -0.547325
 H        -0.984144        -1.340633         0.923896
 H        -0.171547        -2.133292        -0.519655
 H        -1.547521         1.188174         0.879140
 H        -0.184224         2.119934         0.125154
 H        -2.320891         2.131006        -1.194535
 H        -1.070218         1.392746        -2.114560
