19
Iteration:  2414charge 0 multiplicity 1
 O        -4.028988         0.341102        -1.505036
 C        -2.710772         0.047952        -1.499473
 C        -2.037000        -0.985731        -2.368968
 C        -2.142751        -1.220191        -0.809745
 C        -0.738114        -1.338234        -0.087746
 C         0.083629        -0.047106        -0.028138
 O         1.281458        -0.049643         0.089591
 C        -0.810593         1.225572        -0.086300
 C        -1.919225         1.303092        -1.168888
 H        -4.622814        -0.323208        -1.256667
 H        -2.666559        -1.608385        -3.006646
 H        -1.113487        -0.690303        -2.873698
 H        -2.719924        -2.108609        -0.570435
 H        -0.768424        -1.531328         1.054325
 H        -0.109358        -2.202665        -0.391688
 H        -1.210470         1.353411         0.917735
 H        -0.080177         1.999129        -0.289719
 H        -2.598545         2.172252        -0.939744
 H        -1.413627         1.737054        -2.206342
