19
Iteration:  4814charge 0 multiplicity 1
 O        -4.064792         0.125897        -1.081646
 C        -2.657196         0.072427        -1.322283
 C        -2.248880        -0.695093        -2.462082
 C        -1.977003        -1.299119        -1.081577
 C        -0.476587        -1.368485        -0.673581
 C         0.013918        -0.098743        -0.107632
 O         0.716652        -0.071527         0.922567
 C        -0.345554         1.181934        -0.804010
 C        -1.939317         1.430577        -1.010319
 H        -4.074370        -0.124527        -0.075119
 H        -3.095122        -1.068804        -3.015214
 H        -1.416239        -0.233342        -3.178217
 H        -2.523364        -2.184283        -0.871498
 H        -0.428985        -2.047002         0.185483
 H         0.114358        -1.830990        -1.374454
 H         0.194319         1.946079        -0.333483
 H         0.272182         1.131561        -1.770929
 H        -2.496715         2.053907        -0.243286
 H        -1.992166         2.080377        -2.000729
