19
Iteration:  3900charge 0 multiplicity 1
 O        -3.780037         0.389184        -0.782061
 C        -2.604026         0.035914        -1.466995
 C        -2.579701        -1.215471        -2.400330
 C        -1.842503        -1.322595        -1.098695
 C        -0.327277        -1.167692        -0.974082
 C        -0.009162        -0.012925         0.015447
 O         0.579177        -0.013279         1.033345
 C        -0.734060         1.302599        -0.448230
 C        -1.673411         1.186551        -1.618364
 H        -3.780474         0.025292         0.086886
 H        -3.699136        -1.543021        -2.501187
 H        -1.954269        -1.264754        -3.291509
 H        -2.397396        -1.836952        -0.308217
 H         0.154885        -1.991387        -0.502386
 H         0.325104        -1.016510        -1.852912
 H        -1.165815         1.862729         0.415990
 H         0.179912         1.939447        -0.804787
 H        -2.487370         2.012488        -1.516711
 H        -1.296841         1.402209        -2.603742
