19
Iteration:  3331
 O        -4.039001         0.180596        -1.580479
 C        -2.567842         0.095184        -1.407121
 C        -2.137014        -1.054888        -2.364618
 C        -2.108896        -1.246345        -0.848486
 C        -0.752015        -1.380438        -0.153921
 C         0.044595         0.016154        -0.001271
 O         1.240855        -0.011917        -0.059112
 C        -0.850570         1.241610         0.049257
 C        -1.783583         1.449731        -1.111909
 H        -4.237177         0.293326        -0.690760
 H        -2.975140        -1.535455        -2.965458
 H        -1.282518        -1.263857        -2.898334
 H        -2.873426        -1.783505        -0.270759
 H        -1.078545        -1.810646         0.771648
 H        -0.086936        -2.081111        -0.675701
 H        -1.403609         1.154201         0.957810
 H        -0.137305         2.084038         0.165251
 H        -2.594739         2.315910        -0.907753
 H        -1.254508         1.756891        -2.007421
