19
Iteration:  1145charge 0 multiplicity 1
 O        -3.996325         0.421649        -1.455109
 C        -2.626954        -0.031786        -1.348642
 C        -2.217720        -1.036312        -2.440703
 C        -2.142388        -1.350030        -0.911005
 C        -0.681538        -1.305958        -0.236490
 C        -0.023553        -0.042812         0.002302
 O         1.207656         0.014926         0.197081
 C        -0.841583         1.284574        -0.000398
 C        -1.694907         1.230302        -1.290808
 H        -4.451880         0.589336        -0.577580
 H        -3.054247        -1.368360        -3.155966
 H        -1.326204        -1.115570        -2.999154
 H        -2.799162        -2.077918        -0.465660
 H        -0.646852        -1.678908         0.785990
 H        -0.135049        -1.974535        -0.830046
 H        -1.332068         1.516456         0.957706
 H        -0.161660         2.091452        -0.192219
 H        -2.265272         2.150365        -1.296909
 H        -1.028308         1.190118        -2.184788
