19
Iteration:   663
 O        -4.003584         0.353088        -1.131829
 C        -2.654033         0.057613        -1.523194
 C        -2.612619        -1.181959        -2.355797
 C        -1.956102        -1.264830        -0.968513
 C        -0.423753        -1.224522        -0.736539
 C         0.007431         0.008160         0.067004
 O         0.927966        -0.059572         0.904334
 C        -0.639399         1.316835        -0.357668
 C        -1.613706         1.207164        -1.570304
 H        -4.166603         0.466653        -0.176415
 H        -3.624607        -1.691922        -2.317649
 H        -2.212919        -1.335611        -3.372575
 H        -2.453580        -1.843037        -0.202961
 H        -0.163085        -2.170927        -0.264411
 H         0.174186        -1.049450        -1.665024
 H        -1.120425         1.676419         0.613338
 H         0.202971         2.008130        -0.452990
 H        -2.204827         2.079042        -1.474119
 H        -1.086235         1.422486        -2.474939
