19
Iteration:   225charge 0 multiplicity 1
 O        -3.955757         0.233110        -1.481201
 C        -2.583154        -0.012299        -1.543920
 C        -1.986919        -1.032007        -2.416018
 C        -2.079947        -1.233957        -0.902140
 C        -1.017274        -1.152273         0.277674
 C         0.002702        -0.020735        -0.029873
 O         1.194162        -0.133845        -0.265074
 C        -0.740208         1.243910        -0.026020
 C        -1.791075         1.353102        -1.135404
 H        -4.247889        -0.097693        -0.687120
 H        -2.529481        -1.640560        -3.061506
 H        -1.007512        -0.719387        -2.791572
 H        -2.809849        -1.954715        -0.667713
 H        -1.539250        -0.794203         1.178316
 H        -0.641909        -2.162616         0.489094
 H        -1.245483         1.246745         0.919836
 H        -0.044341         2.109705        -0.093939
 H        -2.539112         2.004652        -0.833536
 H        -1.416087         1.944971        -2.023089
