19
Iteration:  2968
 O        -4.000043         0.171177        -1.646334
 C        -2.617812         0.096945        -1.440634
 C        -2.064825        -0.977495        -2.335315
 C        -2.142699        -1.249885        -0.790896
 C        -0.788495        -1.396308        -0.079645
 C         0.043178        -0.019366        -0.085029
 O         1.291162        -0.118632        -0.056259
 C        -0.778427         1.306752        -0.045468
 C        -1.939543         1.462651        -1.044352
 H        -4.341539         0.248574        -0.700889
 H        -2.714674        -1.272066        -3.049021
 H        -1.018457        -0.725262        -2.722424
 H        -2.845125        -2.013054        -0.509992
 H        -0.956588        -1.566970         1.037450
 H        -0.171547        -2.275042        -0.359497
 H        -1.341217         1.177365         0.971004
 H        -0.074679         2.141963        -0.024220
 H        -2.691318         1.999405        -0.451074
 H        -1.597328         2.039452        -1.912138
