19
Iteration:  1858
 O        -4.111760         0.250493        -1.262411
 C        -2.671637         0.037809        -1.462093
 C        -2.219650        -0.908280        -2.445799
 C        -2.077798        -1.294705        -0.917630
 C        -0.773094        -1.263314        -0.257461
 C         0.124503        -0.037142        -0.066701
 O         1.210954        -0.105800         0.370142
 C        -0.684184         1.308497        -0.182865
 C        -1.788583         1.296632        -1.280942
 H        -4.468157        -0.014257        -2.028238
 H        -2.679805        -1.517473        -3.152744
 H        -1.255833        -0.698896        -3.036728
 H        -2.661922        -2.179146        -0.685820
 H        -1.175614        -1.277092         0.810090
 H        -0.189491        -2.212506        -0.168396
 H        -1.136273         1.378579         0.891389
 H         0.120254         2.062496        -0.436584
 H        -2.333283         2.212179        -1.061145
 H        -1.287384         1.536325        -2.275838
