19
Iteration:  1472
 O        -4.005222         0.099582        -1.689396
 C        -2.633934         0.105177        -1.399932
 C        -1.985583        -0.819502        -2.349519
 C        -2.115227        -1.255987        -0.868120
 C        -0.888187        -1.252140         0.069106
 C         0.068623        -0.044374        -0.042327
 O         1.269312        -0.243274        -0.101252
 C        -0.663047         1.281518        -0.018048
 C        -2.001544         1.442030        -1.036986
 H        -4.381097         0.235573        -0.891930
 H        -2.725037        -1.332769        -2.998904
 H        -1.021346        -0.761733        -2.897949
 H        -2.964475        -1.955660        -0.746878
 H        -1.433558        -1.258372         1.012771
 H        -0.334731        -2.202882        -0.091383
 H        -1.104137         1.508041         0.971475
 H         0.229565         1.775265        -0.339144
 H        -2.711111         2.077072        -0.498408
 H        -1.708316         2.003237        -1.934137
