19
Iteration:   174charge 0 multiplicity 1
 O        -4.000734         0.216451        -1.682033
 C        -2.630590         0.099538        -1.303269
 C        -1.949813        -0.938165        -2.182758
 C        -2.164898        -1.252898        -0.728706
 C        -0.830516        -1.377914         0.071994
 C         0.000622        -0.065876        -0.059984
 O         1.212717        -0.045261        -0.140963
 C        -0.754335         1.199369        -0.183998
 C        -1.869776         1.387058        -1.188656
 H        -4.536271         0.703525        -0.965402
 H        -2.653398        -1.288890        -2.894579
 H        -0.925628        -0.811045        -2.469084
 H        -3.041875        -1.886803        -0.543175
 H        -0.960977        -1.688358         1.138341
 H        -0.245123        -2.174978        -0.391872
 H        -1.261164         1.305329         0.829812
 H         0.054233         1.926632        -0.300734
 H        -2.551410         2.335826        -0.941298
 H        -1.439023         1.501569        -2.202505
