19
Iteration:  2731
 O        -4.001081         0.331597        -1.232757
 C        -2.604477        -0.006513        -1.432486
 C        -2.125056        -1.060602        -2.556530
 C        -2.099403        -1.327149        -1.044339
 C        -0.825457        -1.275412        -0.246182
 C         0.089035         0.040885        -0.077338
 O         1.214700        -0.075238         0.321699
 C        -0.788221         1.318421        -0.110032
 C        -1.830905         1.314789        -1.285805
 H        -4.370806         0.066848        -0.370755
 H        -2.877522        -1.831408        -3.014732
 H        -1.275990        -0.732940        -3.096936
 H        -2.841383        -1.993934        -0.574202
 H        -0.972199        -1.410068         0.809147
 H        -0.114317        -2.094700        -0.395179
 H        -1.415430         1.295761         0.820226
 H        -0.176429         2.189868        -0.139736
 H        -2.373628         2.155674        -1.058775
 H        -1.345514         1.482195        -2.165866
