19
Iteration:  2272
 O        -3.954733         0.367412        -1.623811
 C        -2.538210         0.013505        -1.447412
 C        -2.036267        -1.117921        -2.294655
 C        -2.129289        -1.181933        -0.695939
 C        -0.792939        -1.262502        -0.124467
 C        -0.024242        -0.041081        -0.049629
 O         1.222744        -0.024393        -0.221318
 C        -0.939530         1.195441         0.174639
 C        -1.792305         1.371541        -1.074817
 H        -4.421502        -0.353554        -2.013105
 H        -2.816137        -1.707429        -2.857199
 H        -1.134666        -1.335143        -2.840220
 H        -2.878375        -1.839370        -0.275481
 H        -0.918792        -1.742081         0.881807
 H        -0.270181        -2.167301        -0.482228
 H        -1.489639         1.075254         1.171651
 H        -0.279044         2.086755         0.334414
 H        -2.403016         2.249122        -1.169920
 H        -1.201393         1.811600        -1.890770
