19
Iteration:  2651
 O        -3.899439         0.470973        -1.291645
 C        -2.611758        -0.000040        -1.436513
 C        -2.235915        -1.141169        -2.403068
 C        -2.072151        -1.268935        -0.940323
 C        -0.724365        -1.295882        -0.311849
 C         0.048217         0.006354        -0.087014
 O         1.177422         0.010646         0.262209
 C        -0.880516         1.225641        -0.032860
 C        -1.788115         1.281672        -1.255675
 H        -4.529469        -0.300532        -1.349765
 H        -2.893703        -1.756559        -3.010632
 H        -1.178781        -1.074587        -2.964611
 H        -2.673202        -2.057861        -0.523896
 H        -0.951182        -1.687425         0.674305
 H        -0.006705        -1.972891        -0.859235
 H        -1.498346         0.989892         0.830389
 H        -0.355061         2.213231         0.181742
 H        -2.430356         2.180135        -1.397914
 H        -1.313364         1.363082        -2.289091
