19
Iteration:  4455charge 0 multiplicity 1
 O        -4.061053         0.265054        -1.645669
 C        -2.719141        -0.006662        -1.363423
 C        -1.942412        -0.817374        -2.451194
 C        -2.079925        -1.300394        -0.892281
 C        -0.850542        -1.341606         0.080381
 C         0.086370        -0.087613        -0.097108
 O         1.336574        -0.050417        -0.068627
 C        -0.605713         1.271266        -0.207062
 C        -2.145432         1.297624        -0.821761
 H        -4.467271        -0.102652        -0.894632
 H        -2.577351        -1.502856        -3.057783
 H        -1.023066        -0.276637        -2.949716
 H        -2.774793        -2.145902        -0.829161
 H        -1.157054        -1.279268         1.085765
 H        -0.355207        -2.243346         0.057311
 H        -0.620973         1.556110         0.824783
 H         0.083733         2.001562        -0.771943
 H        -2.898476         1.678761        -0.122550
 H        -2.093688         1.974838        -1.698006
