19
Iteration:  4720charge 0 multiplicity 1
 O        -4.125515         0.116009        -0.984311
 C        -2.631076         0.072977        -1.231162
 C        -2.096696        -0.691003        -2.539006
 C        -1.953456        -1.236382        -1.127120
 C        -0.551983        -1.404835        -0.605013
 C        -0.042748        -0.101318        -0.147549
 O         0.696954         0.081793         0.877593
 C        -0.337537         1.048090        -0.960063
 C        -1.913145         1.355302        -0.821851
 H        -4.497018         0.259753        -1.827959
 H        -2.722594        -0.959153        -3.284864
 H        -1.160478        -0.344552        -2.967885
 H        -2.604920        -2.035582        -0.822646
 H        -0.490968        -2.099551         0.305823
 H         0.242799        -1.904523        -1.256792
 H         0.347858         1.909451        -0.691281
 H        -0.120507         0.914110        -2.029803
 H        -2.094859         1.762463         0.174677
 H        -2.307876         2.096675        -1.462007
