19
Iteration:   712
 O        -3.841450         0.388107        -0.800790
 C        -2.550979         0.030373        -1.383712
 C        -2.439363        -1.115920        -2.422137
 C        -1.942715        -1.311006        -1.049029
 C        -0.440327        -1.274371        -0.790086
 C        -0.077682         0.092783        -0.009756
 O         0.642075        -0.108025         0.937341
 C        -0.696731         1.316786        -0.499487
 C        -1.655027         1.193095        -1.677714
 H        -3.615650         0.801668         0.139519
 H        -3.334626        -1.649840        -2.769892
 H        -1.766181        -1.079494        -3.250025
 H        -2.583076        -1.993576        -0.413026
 H        -0.325432        -2.117715        -0.078184
 H         0.191984        -1.356067        -1.697901
 H        -1.176723         1.864973         0.313795
 H         0.159549         2.034215        -0.651460
 H        -2.205885         2.181746        -1.913591
 H        -1.099465         0.930874        -2.635170
