19
Iteration:  2443charge 0 multiplicity 1
 O        -4.096080         0.290743        -1.501956
 C        -2.644738         0.043447        -1.423231
 C        -2.079101        -1.045143        -2.327891
 C        -2.118850        -1.246145        -0.846070
 C        -0.762095        -1.289984        -0.261971
 C         0.060149         0.027149        -0.013838
 O         1.289455        -0.118363         0.194960
 C        -0.716411         1.300911        -0.149792
 C        -1.874151         1.378469        -1.134208
 H        -4.537599        -0.608483        -1.713510
 H        -3.039843        -1.449956        -2.920775
 H        -1.129274        -1.069686        -2.856213
 H        -2.891866        -1.961038        -0.412878
 H        -0.815024        -1.584571         0.779493
 H        -0.080399        -2.132270        -0.505888
 H        -1.312367         1.201018         0.798380
 H        -0.099328         2.275525        -0.267597
 H        -2.563918         2.130315        -0.864428
 H        -1.559561         1.701849        -2.037062
