19
Iteration:  4129
 O        -4.034258         0.185782        -1.182855
 C        -2.625360         0.045159        -1.417444
 C        -2.213038        -1.009520        -2.451445
 C        -2.019200        -1.234062        -0.972420
 C        -0.638082        -1.325048        -0.372295
 C         0.035419         0.025935        -0.022740
 O         1.117710        -0.033514         0.355418
 C        -0.864358         1.309048        -0.116797
 C        -1.747227         1.315869        -1.379230
 H        -4.108471         0.696077        -0.264428
 H        -3.189601        -1.469417        -2.818658
 H        -1.344254        -1.219639        -3.163760
 H        -2.798025        -1.956938        -0.684028
 H        -0.763090        -2.035985         0.410052
 H         0.001094        -1.731857        -1.224358
 H        -1.338486         1.366868         0.842969
 H        -0.128418         2.176400        -0.179533
 H        -2.310789         2.228408        -1.335002
 H        -1.059195         1.260433        -2.339791
