19
Iteration:  4319charge 0 multiplicity 1
 O        -3.921641         0.129602        -1.754115
 C        -2.486455         0.101325        -1.419369
 C        -1.905064        -0.920192        -2.247087
 C        -2.144540        -1.280063        -0.812649
 C        -0.830454        -1.373550         0.144369
 C        -0.088793        -0.073503        -0.061607
 O         1.067038         0.024950        -0.539228
 C        -0.785874         1.234335         0.224250
 C        -1.888164         1.404105        -0.945886
 H        -4.341304         0.207366        -0.903171
 H        -2.562264        -1.189134        -3.065594
 H        -0.880740        -1.006844        -2.387242
 H        -2.984727        -1.785953        -0.334379
 H        -0.943065        -1.547837         1.164867
 H        -0.166595        -2.183127        -0.246461
 H        -1.222993         1.265183         1.217270
 H        -0.027608         1.969637         0.079461
 H        -2.787467         2.049466        -0.516675
 H        -1.420608         1.915496        -1.732974
