19
Iteration:  4213charge 0 multiplicity 1
 O        -3.998322         0.179224        -1.420991
 C        -2.586921         0.036173        -1.369597
 C        -2.023432        -0.963532        -2.332544
 C        -2.086081        -1.266403        -0.903743
 C        -0.781379        -1.309756        -0.161222
 C        -0.032112         0.037507        -0.062965
 O         1.226080        -0.079684        -0.042404
 C        -0.880212         1.270434        -0.014202
 C        -1.836415         1.411484        -1.202338
 H        -4.385875         0.055009        -0.605162
 H        -2.803995        -1.463041        -2.926789
 H        -1.027507        -0.815572        -2.801429
 H        -2.927770        -1.916198        -0.583466
 H        -0.919809        -1.891484         0.833008
 H        -0.072038        -1.993852        -0.631582
 H        -1.352736         1.104313         1.032235
 H        -0.295935         2.142427         0.088003
 H        -2.474574         2.256516        -1.096257
 H        -1.226105         1.618320        -2.141878
