19
Iteration:  4909
 O        -4.066031         0.063288        -1.099277
 C        -2.688337         0.069951        -1.248828
 C        -2.118322        -0.607091        -2.520358
 C        -2.008728        -1.249950        -1.172054
 C        -0.706323        -1.434864        -0.513250
 C         0.073134        -0.054064        -0.095833
 O         0.872395         0.005851         0.780559
 C        -0.386824         1.133229        -0.901152
 C        -1.914353         1.299088        -0.770566
 H        -4.523431         0.440983        -1.863054
 H        -2.795847        -1.061990        -3.143737
 H        -1.296432        -0.071002        -2.972282
 H        -2.694457        -2.050926        -1.026469
 H        -0.936428        -1.766604         0.469825
 H         0.030495        -2.276439        -0.909417
 H         0.159259         2.067866        -0.409038
 H        -0.096661         1.279860        -1.952927
 H        -2.178416         1.652268         0.250716
 H        -2.147070         2.075280        -1.440277
