19
Iteration:  3289
 O        -4.024241         0.284890        -1.597463
 C        -2.610977         0.036437        -1.399910
 C        -1.937316        -1.009148        -2.296988
 C        -2.094553        -1.311014        -0.834043
 C        -0.852755        -1.284075        -0.025811
 C        -0.001816        -0.062467        -0.109221
 O         1.204565         0.029876        -0.206136
 C        -0.804790         1.191354         0.046867
 C        -1.840229         1.315143        -1.043663
 H        -4.463913         0.757753        -0.832793
 H        -2.783308        -1.319815        -3.000929
 H        -0.964724        -0.956976        -2.663862
 H        -2.777739        -2.121879        -0.659489
 H        -1.114292        -1.299086         1.045900
 H        -0.156522        -2.113178        -0.264289
 H        -1.392157         0.904342         0.880232
 H        -0.307899         2.136702         0.363000
 H        -2.450439         2.218817        -0.874129
 H        -1.324764         1.521000        -2.000653
