19
Iteration:   703
 O        -3.843763         0.357943        -0.851939
 C        -2.553672         0.023031        -1.479475
 C        -2.441621        -1.063159        -2.384658
 C        -1.907826        -1.238427        -0.957983
 C        -0.461748        -1.276923        -0.727594
 C        -0.079755        -0.047646        -0.100257
 O         0.626589        -0.087579         0.901391
 C        -0.686293         1.345105        -0.476122
 C        -1.638095         1.169512        -1.636743
 H        -3.473808         0.676320         0.063400
 H        -3.336918        -1.661902        -2.641969
 H        -1.727136        -0.807733        -3.092038
 H        -2.590900        -1.792505        -0.269072
 H        -0.047568        -2.031153        -0.051132
 H         0.007766        -1.372950        -1.725027
 H        -1.238339         1.666859         0.396577
 H         0.027399         2.133711        -0.711124
 H        -2.385189         2.045871        -1.747299
 H        -1.111216         1.155776        -2.618954
