19
Iteration:   246charge 0 multiplicity 1
 O        -3.988154         0.395928        -1.552090
 C        -2.587596        -0.019681        -1.347428
 C        -1.888500        -0.958395        -2.354754
 C        -1.997831        -1.364241        -0.871392
 C        -0.966697        -1.269800         0.257186
 C        -0.046596        -0.060615        -0.025398
 O         1.143400        -0.092591        -0.275069
 C        -0.760335         1.275925        -0.073407
 C        -1.841379         1.308915        -1.185382
 H        -4.492882        -0.046592        -0.803748
 H        -2.604495        -1.504691        -2.906009
 H        -0.942866        -0.786395        -2.939764
 H        -2.704644        -2.122159        -0.650632
 H        -1.492151        -1.066952         1.205720
 H        -0.373847        -2.212319         0.402457
 H        -1.215746         1.465425         0.867591
 H        -0.065648         2.092483        -0.345102
 H        -2.597829         2.114798        -0.967980
 H        -1.485130         1.547987        -2.236676
