19
Iteration:  1934
 O        -4.015741         0.252436        -1.405337
 C        -2.628382         0.054391        -1.442053
 C        -2.229922        -1.044586        -2.388691
 C        -2.164167        -1.292805        -0.839973
 C        -0.794093        -1.202346        -0.164913
 C         0.085501        -0.003516         0.003931
 O         1.290774        -0.028866         0.097516
 C        -0.851641         1.230420         0.052453
 C        -1.678765         1.286130        -1.330992
 H        -4.153043         0.862816        -2.265160
 H        -3.059338        -1.625431        -2.804996
 H        -1.400337        -0.993052        -3.095103
 H        -3.010100        -1.945357        -0.568537
 H        -0.790458        -1.688869         0.797473
 H        -0.139393        -1.884519        -0.716587
 H        -1.594657         0.949261         0.832925
 H        -0.452244         2.190566         0.435076
 H        -2.328133         2.060945        -1.072804
 H        -0.892992         1.444126        -2.086908
