19
Iteration:  2170charge 0 multiplicity 1
 O        -4.036408         0.076038        -1.283202
 C        -2.572118         0.058860        -1.468668
 C        -2.065384        -0.927473        -2.506819
 C        -2.022632        -1.195897        -0.984482
 C        -0.889917        -1.294573         0.059664
 C        -0.054967        -0.080119        -0.058496
 O         1.159392        -0.051134         0.129148
 C        -0.676040         1.261982        -0.193864
 C        -1.818912         1.377992        -1.243063
 H        -4.218249         1.017737        -1.513899
 H        -2.830368        -1.573157        -2.992608
 H        -1.072647        -0.704391        -2.883963
 H        -2.817533        -1.900384        -0.715706
 H        -1.286382        -1.330891         1.092810
 H        -0.370027        -2.253315        -0.046986
 H        -1.121344         1.432755         0.841980
 H         0.139676         1.961086        -0.344164
 H        -2.452557         2.078899        -0.799565
 H        -1.302169         1.733176        -2.221364
