19
Iteration:  1176charge 0 multiplicity 1
 O        -4.036120         0.294009        -1.518396
 C        -2.585752         0.122349        -1.457406
 C        -2.144135        -1.118362        -2.384631
 C        -2.124286        -1.196115        -0.858113
 C        -0.781370        -1.332659        -0.148051
 C         0.061540        -0.098190        -0.055422
 O         1.236617         0.015722         0.109314
 C        -0.843987         1.139751         0.029170
 C        -1.726040         1.426864        -1.245351
 H        -4.280167         0.627346        -0.659167
 H        -3.047901        -1.645149        -2.861591
 H        -1.234025        -1.177443        -2.937137
 H        -2.876348        -1.856940        -0.467616
 H        -0.798842        -1.775855         0.862768
 H        -0.204746        -2.184372        -0.633983
 H        -1.568605         1.052108         0.933562
 H        -0.338844         2.078542         0.146082
 H        -2.439262         2.225801        -0.995908
 H        -1.248247         1.660328        -2.210291
