19
Iteration:   502charge 0 multiplicity 1
 O        -3.913811         0.357226        -1.219838
 C        -2.581257         0.023230        -1.520003
 C        -2.426394        -1.205468        -2.393857
 C        -2.086665        -1.168339        -0.932553
 C        -0.690668        -1.330788        -0.380725
 C         0.066337         0.015955         0.011076
 O         1.230063        -0.010854         0.382439
 C        -0.876462         1.232393        -0.072144
 C        -1.686247         1.309673        -1.374007
 H        -4.263346         0.764985        -2.137027
 H        -3.350997        -1.759630        -2.719682
 H        -1.653987        -1.254017        -3.133801
 H        -2.741672        -1.677915        -0.276383
 H        -0.610019        -1.746217         0.639008
 H        -0.174877        -2.097549        -0.948179
 H        -1.574808         1.217476         0.739005
 H        -0.266135         2.112161         0.016349
 H        -2.476975         2.029974        -1.319939
 H        -1.125174         1.631669        -2.293764
