19
Iteration:  4330charge 0 multiplicity 1
 O        -3.863743         0.166686        -1.745060
 C        -2.556390         0.079593        -1.404702
 C        -1.883748        -0.950337        -2.325365
 C        -2.125562        -1.250687        -0.750033
 C        -0.828258        -1.316631         0.144788
 C        -0.061748        -0.008567        -0.056889
 O         1.072773        -0.051049        -0.554218
 C        -0.832032         1.240132         0.143496
 C        -1.894976         1.341714        -0.819371
 H        -4.363600         0.255496        -0.972709
 H        -2.520515        -1.498964        -3.036881
 H        -0.936741        -0.751088        -2.700953
 H        -2.979217        -1.959600        -0.666717
 H        -1.139124        -1.341948         1.137260
 H        -0.139243        -2.166456        -0.137605
 H        -1.239616         1.139264         1.150211
 H        -0.221463         2.105523         0.182324
 H        -2.725869         2.147766        -0.561639
 H        -1.446093         1.872421        -1.618639
