19
Iteration:  2796charge 0 multiplicity 1
 O        -4.008311         0.286055        -1.465458
 C        -2.632318         0.072809        -1.490747
 C        -2.194144        -1.089510        -2.367998
 C        -2.108739        -1.305712        -0.893091
 C        -0.697018        -1.228934        -0.273401
 C        -0.004595         0.043719        -0.029930
 O         1.251185        -0.045097         0.087520
 C        -0.870203         1.198782         0.093262
 C        -1.744565         1.281127        -1.171558
 H        -4.168075         0.813861        -0.733984
 H        -2.984848        -1.647306        -2.945216
 H        -1.239792        -1.051003        -2.976764
 H        -2.967138        -1.696108        -0.321148
 H        -0.826787        -1.542478         0.761143
 H         0.023507        -1.981955        -0.681158
 H        -1.532632         1.151949         0.951270
 H        -0.284134         2.066869         0.090606
 H        -2.308409         2.196767        -1.176075
 H        -1.139766         1.444118        -2.123529
