19
Iteration:     8
 O        -3.999550         0.217466        -1.568365
 C        -2.562984         0.046475        -1.421585
 C        -2.040080        -1.019144        -2.361024
 C        -2.155175        -1.246177        -0.822708
 C        -0.800764        -1.298439         0.061788
 C        -0.053279         0.019203        -0.048827
 O         1.198497        -0.071056        -0.121252
 C        -0.792084         1.309591        -0.021051
 C        -1.777687         1.301600        -1.217491
 H        -4.284970         0.337020        -0.735245
 H        -2.969967        -1.417295        -2.823316
 H        -1.073004        -1.127084        -2.756307
 H        -3.058694        -1.791720        -0.584919
 H        -1.193424        -1.268980         1.125704
 H        -0.208229        -2.210609         0.022220
 H        -1.327153         1.366940         0.963661
 H         0.084348         2.011397        -0.104081
 H        -2.426929         2.182174        -0.895969
 H        -1.101239         1.495551        -2.024594
