19
Iteration:  3717charge 0 multiplicity 1
 O        -3.875743         0.372373        -0.869576
 C        -2.581580        -0.057666        -1.399023
 C        -2.566764        -1.155083        -2.425565
 C        -1.846080        -1.312007        -1.092783
 C        -0.321092        -1.257479        -0.808348
 C        -0.073788         0.003252         0.013688
 O         0.734675        -0.059271         0.929110
 C        -0.735843         1.374907        -0.458105
 C        -1.714017         1.248179        -1.591893
 H        -3.761653         0.875921         0.011658
 H        -3.493944        -1.729158        -2.476631
 H        -2.056703        -1.071970        -3.421299
 H        -2.421230        -1.927695        -0.403514
 H        -0.015321        -2.127670        -0.305991
 H         0.370352        -1.014777        -1.686301
 H        -1.434436         1.597423         0.368453
 H        -0.077063         2.217519        -0.450674
 H        -2.191385         2.244721        -1.728335
 H        -1.166618         1.072636        -2.473636
