19
Iteration:  4826charge 0 multiplicity 1
 O        -4.115028         0.062350        -1.142631
 C        -2.706014         0.124364        -1.231607
 C        -2.284599        -0.713241        -2.429195
 C        -1.913515        -1.238598        -1.112582
 C        -0.496325        -1.408657        -0.672971
 C         0.056637        -0.094528        -0.089907
 O         0.724804        -0.061081         0.902077
 C        -0.330915         1.191456        -0.784102
 C        -1.863607         1.408660        -1.053819
 H        -4.453247         0.414059        -0.325251
 H        -3.052927        -1.278993        -2.939680
 H        -1.396223        -0.278567        -3.129764
 H        -2.573948        -2.033859        -0.843988
 H        -0.388583        -2.163347         0.141588
 H         0.126351        -1.653852        -1.456604
 H         0.109934         1.877496        -0.142259
 H         0.036285         1.128212        -1.844502
 H        -2.152496         1.793125        -0.014060
 H        -2.132873         2.213962        -1.869941
