19
Iteration:  1649
 O        -3.905464         0.328016        -1.501390
 C        -2.544127         0.063938        -1.393411
 C        -2.130097        -1.023551        -2.510062
 C        -2.198006        -1.242306        -0.885220
 C        -0.843033        -1.240770        -0.029764
 C         0.007126        -0.000257         0.052530
 O         1.217357        -0.038424        -0.119508
 C        -0.871786         1.207392         0.104022
 C        -1.736035         1.255685        -1.195359
 H        -4.424714        -0.542163        -1.178423
 H        -2.810034        -1.461503        -3.344131
 H        -1.169153        -1.000995        -2.968277
 H        -2.839824        -1.951027        -0.355005
 H        -1.071970        -1.334601         1.058668
 H        -0.226874        -2.095940        -0.304721
 H        -1.363929         1.068412         1.013129
 H        -0.308782         2.053378         0.358801
 H        -2.351895         2.004025        -0.831366
 H        -1.189315         1.672970        -2.038146
