19
Iteration:  1957
 O        -4.057459         0.341931        -1.384389
 C        -2.642929         0.092099        -1.500517
 C        -2.179674        -1.074261        -2.379124
 C        -2.047649        -1.201279        -0.887682
 C        -0.688105        -1.379640        -0.128835
 C         0.005408        -0.086756         0.032560
 O         1.206448         0.082122         0.009641
 C        -0.908166         1.212568         0.050702
 C        -1.688922         1.216231        -1.266678
 H        -4.170428         1.084019        -1.912613
 H        -2.930108        -1.759613        -2.924543
 H        -1.264431        -1.043577        -2.892327
 H        -2.941837        -1.718297        -0.471343
 H        -1.053357        -1.737341         0.827624
 H        -0.057409        -2.217825        -0.452424
 H        -1.569789         1.185925         0.963209
 H        -0.287558         2.150008         0.184593
 H        -2.158385         2.127410        -1.445985
 H        -0.714488         1.081260        -1.723838
