19
Iteration:  2372
 O        -3.965328         0.300396        -1.339784
 C        -2.567236        -0.018213        -1.526886
 C        -1.992062        -0.973752        -2.430575
 C        -2.060433        -1.291061        -0.887696
 C        -0.863875        -1.282774        -0.014660
 C        -0.075902        -0.039647        -0.017372
 O         1.152136        -0.080197        -0.119369
 C        -0.852223         1.290620         0.054823
 C        -1.756527         1.407789        -1.180117
 H        -4.325288        -0.661260        -1.381032
 H        -2.587411        -1.656133        -2.987296
 H        -1.032897        -0.819388        -2.870855
 H        -2.903985        -1.918745        -0.675736
 H        -1.258348        -1.404011         1.023217
 H        -0.217314        -2.147554        -0.088525
 H        -1.506064         1.365197         0.935081
 H        -0.182736         2.103424        -0.046297
 H        -2.511700         2.228498        -1.326385
 H        -1.005223         1.556177        -2.008642
