19
Iteration:  1657
 O        -3.890487         0.352929        -1.497972
 C        -2.565276         0.040927        -1.419555
 C        -2.134505        -1.063304        -2.523631
 C        -2.157207        -1.220966        -0.835456
 C        -0.853943        -1.306229        -0.030952
 C        -0.011521        -0.037950        -0.008229
 O         1.236276         0.021529        -0.112577
 C        -0.866919         1.184998         0.114683
 C        -1.698834         1.285882        -1.138821
 H        -4.498347        -0.508246        -1.338815
 H        -3.070928        -1.481761        -2.984834
 H        -1.201573        -0.719749        -2.897437
 H        -2.993038        -1.876521        -0.657656
 H        -1.094944        -1.368623         1.098684
 H        -0.189376        -2.165164        -0.233909
 H        -1.645433         1.026790         0.925711
 H        -0.399743         2.150028         0.234401
 H        -2.486188         2.106594        -1.068306
 H        -1.045679         1.531890        -2.013938
