19
Iteration:   715charge 0 multiplicity 1
 O        -3.826553         0.398486        -0.780886
 C        -2.579335         0.029677        -1.352558
 C        -2.454684        -1.136018        -2.449789
 C        -1.951406        -1.335746        -1.081627
 C        -0.443168        -1.266504        -0.804274
 C        -0.079704         0.101526         0.013762
 O         0.658657        -0.102939         0.965753
 C        -0.698103         1.341380        -0.506128
 C        -1.648577         1.204712        -1.701470
 H        -3.739165         0.767292         0.025064
 H        -3.388140        -1.652937        -2.772985
 H        -1.774586        -1.154293        -3.259301
 H        -2.534619        -2.030150        -0.457042
 H        -0.280723        -2.108915        -0.155550
 H         0.262150        -1.402973        -1.655506
 H        -1.167187         1.853420         0.316645
 H         0.205153         1.933505        -0.676816
 H        -2.147569         2.195378        -1.913177
 H        -1.069012         0.884132        -2.576452
