19
Iteration:  1968
 O        -3.957194         0.358837        -1.315589
 C        -2.576869         0.049847        -1.478216
 C        -2.107515        -1.066838        -2.397807
 C        -2.102714        -1.259602        -0.881545
 C        -0.823757        -1.425687        -0.094488
 C        -0.044991        -0.062034         0.003657
 O         1.159787         0.145587        -0.017675
 C        -0.944215         1.177557         0.075747
 C        -1.619665         1.242962        -1.300585
 H        -4.131302         1.165867        -1.899382
 H        -2.880596        -1.835568        -2.746753
 H        -1.300360        -0.862425        -3.032622
 H        -2.916965        -1.942791        -0.549515
 H        -0.889691        -1.754744         0.934085
 H        -0.148833        -2.048458        -0.689481
 H        -1.574571         1.147416         0.999202
 H        -0.206233         2.032267         0.122751
 H        -2.075374         2.210413        -1.441274
 H        -1.044313         1.227055        -2.278657
