19
Iteration:  4972charge 0 multiplicity 1
 O        -4.099068         0.130759        -1.182631
 C        -2.713462         0.066674        -1.391045
 C        -2.138781        -0.711557        -2.571373
 C        -2.048003        -1.358226        -1.198929
 C        -0.698870        -1.366865        -0.299772
 C         0.064281        -0.085089        -0.116538
 O         1.119387        -0.061173         0.602005
 C        -0.465900         1.242876        -0.629677
 C        -1.965980         1.311751        -0.788282
 H        -4.549608         0.847731        -1.729958
 H        -2.744730        -1.225394        -3.274592
 H        -1.307147        -0.330612        -3.144441
 H        -2.724194        -2.173964        -1.023804
 H        -1.074816        -1.564865         0.715678
 H         0.028256        -2.052334        -0.510933
 H        -0.268578         2.038321         0.135043
 H        -0.014592         1.566772        -1.522120
 H        -2.603824         1.574106         0.166453
 H        -2.030623         2.278481        -1.348726
