19
Iteration:  2679charge 0 multiplicity 1
 O        -4.055115         0.345139        -1.253893
 C        -2.642398         0.094171        -1.499937
 C        -2.171336        -0.980113        -2.409670
 C        -2.054972        -1.206740        -0.902518
 C        -0.700949        -1.441838        -0.195833
 C        -0.006737        -0.080427        -0.001756
 O         1.213933         0.025784         0.275986
 C        -0.819534         1.227651        -0.141735
 C        -1.776512         1.313921        -1.383504
 H        -4.426854        -0.477978        -1.007356
 H        -2.921295        -1.442322        -3.098396
 H        -1.233008        -0.676339        -2.842393
 H        -2.731443        -2.031823        -0.596277
 H        -0.739311        -2.092340         0.730758
 H         0.071575        -1.953132        -0.801992
 H        -1.548722         1.221189         0.730869
 H        -0.114730         2.050753        -0.097458
 H        -2.276066         2.316165        -1.419765
 H        -1.117028         1.321613        -2.318491
