19
Iteration:  4014
 O        -3.919566         0.307622        -1.002863
 C        -2.557960         0.034902        -1.490218
 C        -2.466914        -1.169834        -2.420284
 C        -1.970093        -1.286867        -1.007989
 C        -0.477669        -1.264691        -0.762057
 C         0.002378         0.027068         0.023724
 O         0.946017         0.034302         0.728636
 C        -0.869055         1.264040        -0.240272
 C        -1.655900         1.237586        -1.542372
 H        -3.847251         0.802633        -0.114870
 H        -3.541946        -1.466031        -2.333273
 H        -1.906417        -1.089227        -3.280785
 H        -2.451925        -1.805725        -0.191579
 H        -0.235542        -2.140213        -0.053654
 H         0.106014        -1.517774        -1.639236
 H        -1.683701         1.305117         0.519965
 H        -0.276394         2.175999        -0.055367
 H        -2.288488         2.225265        -1.571775
 H        -0.921954         1.212020        -2.391439
