19
Iteration:  4675charge 0 multiplicity 1
 O        -4.051830         0.127190        -1.150926
 C        -2.628745         0.005044        -1.331234
 C        -2.284403        -0.820514        -2.561099
 C        -1.972966        -1.324321        -1.205773
 C        -0.628447        -1.276548        -0.508357
 C         0.070349         0.021516        -0.047073
 O         0.833042        -0.012708         0.795665
 C        -0.375916         1.203053        -0.791489
 C        -1.903728         1.315256        -0.850087
 H        -4.229125         0.927058        -0.712000
 H        -3.126240        -1.323908        -2.997808
 H        -1.498532        -0.689571        -3.395437
 H        -2.550202        -2.084040        -0.746748
 H        -0.747035        -1.936180         0.476120
 H         0.151461        -2.007410        -0.971611
 H        -0.084341         2.164907        -0.304757
 H         0.174485         1.200238        -1.754106
 H        -2.265250         1.475245         0.208708
 H        -2.213564         2.234200        -1.348257
