19
Iteration:  4916
 O        -4.124662         0.027690        -1.098927
 C        -2.679908         0.087644        -1.189608
 C        -2.065115        -0.579915        -2.566733
 C        -2.020393        -1.227877        -1.189540
 C        -0.686185        -1.392040        -0.437264
 C         0.008662        -0.120840        -0.123702
 O         0.915701        -0.013596         0.766411
 C        -0.335851         1.149894        -0.881590
 C        -1.929980         1.351534        -0.802277
 H        -4.537381         0.186763        -1.904885
 H        -2.955730        -0.893754        -3.216422
 H        -1.178660        -0.155970        -2.958453
 H        -2.665448        -2.137631        -1.053492
 H        -0.913095        -1.880358         0.552046
 H        -0.005746        -2.042364        -0.842058
 H         0.189034         2.011085        -0.572821
 H        -0.128326         0.993841        -1.938497
 H        -2.320207         1.520025         0.259528
 H        -2.208561         2.225595        -1.475876
