19
Iteration:   719charge 0 multiplicity 1
 O        -3.811484         0.398951        -0.781099
 C        -2.619163         0.025597        -1.332327
 C        -2.505105        -1.160768        -2.483018
 C        -1.951972        -1.360880        -1.122267
 C        -0.451739        -1.247024        -0.817430
 C        -0.082596         0.066019         0.039123
 O         0.680012        -0.082915         1.005583
 C        -0.691220         1.385322        -0.511281
 C        -1.632472         1.210922        -1.721723
 H        -3.811151         0.844577         0.196390
 H        -3.432977        -1.638470        -2.710680
 H        -1.708149        -1.155184        -3.335010
 H        -2.456834        -2.057517        -0.492314
 H        -0.130732        -2.111643        -0.180846
 H         0.288914        -1.429758        -1.610852
 H        -1.191978         1.874156         0.382956
 H         0.274180         1.876455        -0.761533
 H        -2.083092         2.129538        -1.914739
 H        -1.015248         0.863469        -2.530883
