19
Iteration:  1801charge 0 multiplicity 1
 O        -4.045625         0.220478        -1.251408
 C        -2.543582         0.065673        -1.422741
 C        -2.054022        -1.047037        -2.408109
 C        -2.075777        -1.268054        -0.911572
 C        -0.799878        -1.375539        -0.179717
 C        -0.019009        -0.080412        -0.088580
 O         1.110628        -0.035859         0.237253
 C        -0.769185         1.276601        -0.176972
 C        -1.797816         1.398795        -1.334098
 H        -4.098777         1.230555        -1.478634
 H        -2.943510        -1.453611        -2.980434
 H        -1.042195        -0.781574        -2.724800
 H        -2.902689        -1.859098        -0.503188
 H        -1.067286        -1.767732         0.829468
 H        -0.111155        -2.107810        -0.641039
 H        -1.273480         1.445372         0.879805
 H        -0.021114         2.088148        -0.289426
 H        -2.346448         2.318505        -1.172469
 H        -1.089590         1.563120        -2.221266
