19
Iteration:  2825
 O        -3.977504         0.438121        -1.542031
 C        -2.599228         0.050583        -1.486449
 C        -2.180511        -1.059119        -2.323531
 C        -2.116103        -1.352598        -0.883682
 C        -0.721045        -1.401809        -0.171108
 C         0.075435         0.000176         0.025536
 O         1.267757         0.110086        -0.011805
 C        -0.907806         1.154606         0.123516
 C        -1.775613         1.290623        -1.233609
 H        -4.347741         0.494723        -0.624018
 H        -3.086553        -1.680620        -2.658887
 H        -1.394450        -1.143025        -2.968342
 H        -2.929080        -1.884139        -0.409770
 H        -0.869708        -1.920945         0.829522
 H        -0.087343        -2.173333        -0.633414
 H        -1.688617         0.911554         0.891807
 H        -0.303844         2.086673         0.284776
 H        -2.505847         2.153009        -1.017103
 H        -1.285200         1.487246        -2.251530
