19
Iteration:  4879
 O        -4.044321         0.205726        -1.062673
 C        -2.645300         0.022057        -1.398698
 C        -2.194372        -0.802577        -2.616069
 C        -1.983472        -1.294426        -1.149186
 C        -0.572306        -1.390569        -0.547508
 C        -0.069085        -0.018468        -0.072932
 O         0.838495        -0.002652         0.837606
 C        -0.383765         1.185776        -0.857974
 C        -1.918071         1.253829        -0.735551
 H        -4.181444         1.138651        -1.079204
 H        -3.043331        -1.136322        -3.166829
 H        -1.387888        -0.499988        -3.404306
 H        -2.651032        -2.063914        -0.841557
 H        -0.616041        -2.010532         0.365352
 H         0.255277        -1.757146        -1.236183
 H         0.177101         1.945800        -0.303249
 H        -0.117239         1.359145        -1.986269
 H        -2.157797         1.420549         0.284577
 H        -2.365080         2.158322        -1.258139
