19
Iteration:  2126
 O        -4.105158         0.222060        -1.389061
 C        -2.708680         0.032161        -1.362837
 C        -2.025856        -0.940709        -2.384935
 C        -2.119267        -1.291936        -0.863421
 C        -0.768170        -1.281269        -0.169453
 C         0.065525        -0.029202        -0.128943
 O         1.186705        -0.107540         0.246664
 C        -0.678629         1.295662        -0.209184
 C        -1.828460         1.360702        -1.186213
 H        -4.272431         0.307910        -2.298210
 H        -2.803258        -1.522429        -3.041627
 H        -1.101666        -0.678940        -2.834385
 H        -2.922463        -2.016011        -0.597504
 H        -0.886866        -1.458258         0.926608
 H        -0.039074        -2.075185        -0.389685
 H        -1.031688         1.388951         0.904768
 H         0.060454         2.089629        -0.305655
 H        -2.545800         2.096191        -0.889360
 H        -1.565202         1.566843        -2.324768
