19
Iteration:  4505charge 0 multiplicity 1
 O        -4.062162        -0.033320        -1.518604
 C        -2.647913         0.115237        -1.321357
 C        -1.852922        -0.682159        -2.384394
 C        -2.103759        -1.233263        -0.945866
 C        -0.913052        -1.323300        -0.120665
 C         0.020252        -0.069915        -0.157501
 O         1.220019        -0.197640         0.207228
 C        -0.555825         1.380417        -0.540722
 C        -2.079101         1.349756        -0.746797
 H        -4.503036         0.515569        -0.785430
 H        -2.475476        -1.120993        -3.023827
 H        -0.865830        -0.480100        -2.806736
 H        -2.787424        -2.079647        -0.816424
 H        -1.198356        -1.598591         0.983470
 H        -0.179714        -2.233599        -0.359599
 H        -0.298732         2.273680         0.130319
 H        -0.202059         1.605470        -1.501610
 H        -2.588195         1.378262         0.253983
 H        -2.400859         2.259043        -1.286528
