19
Iteration:  4231
 O        -3.978889         0.152247        -1.478008
 C        -2.556166         0.053421        -1.423437
 C        -2.063982        -0.975533        -2.396951
 C        -2.110599        -1.299092        -0.878956
 C        -0.779488        -1.322160        -0.076274
 C        -0.024451        -0.086394        -0.012227
 O         1.168532         0.019388        -0.180993
 C        -0.825147         1.318238         0.103206
 C        -1.779350         1.348144        -1.124476
 H        -4.284362         0.322101        -0.632927
 H        -2.692871        -1.383523        -3.103670
 H        -1.056662        -0.706153        -2.788889
 H        -2.906597        -1.967609        -0.613089
 H        -1.108541        -1.322037         0.923197
 H        -0.272773        -2.259376        -0.416045
 H        -1.474440         1.452327         0.955877
 H        -0.097052         2.162139         0.103777
 H        -2.632025         2.134673        -0.950015
 H        -1.397136         1.655858        -2.036617
