19
Iteration:  1056
 O        -3.908966         0.454602        -1.221382
 C        -2.683109         0.062635        -1.457394
 C        -2.351470        -1.050006        -2.416896
 C        -2.021790        -1.382323        -1.016780
 C        -0.642795        -1.362203        -0.422200
 C        -0.056315         0.023058         0.120378
 O         1.117126         0.015468         0.449712
 C        -0.849003         1.310313        -0.144751
 C        -1.672954         1.134831        -1.450133
 H        -4.190210         0.547173        -0.344090
 H        -3.253914        -1.486029        -2.783177
 H        -1.557910        -0.927489        -3.258887
 H        -2.702078        -1.972182        -0.408443
 H        -0.302513        -2.110231         0.298978
 H         0.043603        -1.786415        -1.138300
 H        -1.531523         1.515789         0.696746
 H        -0.082167         2.063772        -0.143983
 H        -2.180778         2.068983        -1.766790
 H        -0.811475         1.016465        -2.133584
