19
Iteration:  3808
 O        -3.810956         0.310356        -0.775186
 C        -2.645046         0.041252        -1.417208
 C        -2.535340        -1.155171        -2.373498
 C        -1.857478        -1.329188        -1.045795
 C        -0.312038        -1.172065        -0.971983
 C        -0.042551        -0.013010        -0.055694
 O         0.494658        -0.023209         1.077433
 C        -0.618920         1.308316        -0.483767
 C        -1.689428         1.257520        -1.654018
 H        -3.436690         0.513146         0.182820
 H        -3.290312        -1.875578        -2.491840
 H        -2.164667        -0.877263        -3.385664
 H        -2.215546        -2.245168        -0.510214
 H         0.149678        -2.159685        -0.586984
 H         0.115126        -0.996310        -1.980321
 H        -0.992247         1.797510         0.452560
 H         0.199347         1.955576        -0.853223
 H        -2.263011         2.113550        -1.689171
 H        -1.216933         1.208384        -2.697819
