19
Iteration:  1861charge 0 multiplicity 1
 O        -4.090348         0.263012        -1.263011
 C        -2.656334         0.035240        -1.441166
 C        -2.195891        -0.883109        -2.446623
 C        -2.088236        -1.299885        -0.894117
 C        -0.783318        -1.268101        -0.251328
 C         0.118746        -0.014132        -0.059290
 O         1.223954        -0.107760         0.366990
 C        -0.723446         1.274933        -0.203763
 C        -1.778918         1.300781        -1.300180
 H        -4.556000        -0.061284        -2.130980
 H        -2.765980        -1.492786        -3.238217
 H        -1.277586        -0.673466        -2.991757
 H        -2.730618        -2.168865        -0.653148
 H        -1.133180        -1.317072         0.847931
 H        -0.160815        -2.210586        -0.319537
 H        -1.033484         1.412719         0.859365
 H         0.122816         2.037818        -0.368008
 H        -2.587710         2.126715        -0.994061
 H        -1.289150         1.395182        -2.298906
