19
Iteration:  1147
 O        -3.999687         0.426943        -1.460899
 C        -2.604154        -0.037498        -1.347735
 C        -2.222141        -1.037861        -2.438856
 C        -2.166323        -1.346434        -0.896211
 C        -0.689113        -1.311400        -0.244746
 C        -0.025625        -0.039143        -0.004909
 O         1.219805         0.018759         0.194292
 C        -0.837754         1.276745         0.010411
 C        -1.697463         1.236804        -1.282360
 H        -4.354934         0.556896        -0.651158
 H        -3.007020        -1.367374        -3.163421
 H        -1.286795        -1.062835        -3.017438
 H        -2.866651        -2.082356        -0.462601
 H        -0.641468        -1.703581         0.786125
 H        -0.040983        -2.011395        -0.760503
 H        -1.313288         1.483959         0.927109
 H        -0.218575         2.153953        -0.215979
 H        -2.354992         2.113930        -1.315700
 H        -1.089486         1.176994        -2.203135
