19
Iteration:  2652charge 0 multiplicity 1
 O        -3.910667         0.469386        -1.288827
 C        -2.602018        -0.004789        -1.429939
 C        -2.228939        -1.124922        -2.403304
 C        -2.074966        -1.264512        -0.939377
 C        -0.729516        -1.292110        -0.318626
 C         0.047488         0.004355        -0.091507
 O         1.178079         0.008927         0.266533
 C        -0.881528         1.220054        -0.040727
 C        -1.788274         1.276629        -1.267775
 H        -4.510753        -0.263734        -1.324862
 H        -2.883936        -1.820162        -3.010382
 H        -1.159964        -1.071617        -2.908663
 H        -2.689106        -2.044154        -0.521013
 H        -0.921149        -1.674297         0.673551
 H         0.018752        -1.966349        -0.830244
 H        -1.531253         0.988275         0.836100
 H        -0.336200         2.185249         0.160628
 H        -2.428883         2.138067        -1.370482
 H        -1.301516         1.393529        -2.241268
