19
Iteration:  4296charge 0 multiplicity 1
 O        -3.908723         0.160335        -1.699643
 C        -2.613261         0.070732        -1.335088
 C        -1.844505        -0.978159        -2.211753
 C        -2.120852        -1.208963        -0.816160
 C        -0.846167        -1.379737         0.042936
 C        -0.086784        -0.060657        -0.056199
 O         1.119787        -0.000771        -0.507244
 C        -0.877926         1.243473         0.143199
 C        -1.848489         1.419846        -0.960640
 H        -4.349643         0.421956        -0.841714
 H        -2.384701        -1.602848        -2.831132
 H        -0.826977        -0.691836        -2.506879
 H        -2.824441        -2.002058        -0.607527
 H        -0.869710        -1.537149         1.098543
 H        -0.292089        -2.244371        -0.423488
 H        -1.506219         1.000577         0.989331
 H        -0.187623         2.072976         0.406656
 H        -2.610590         2.260701        -0.685392
 H        -1.233142         1.768982        -1.793271
