19
Iteration:   930
 O        -3.932721         0.341656        -0.876535
 C        -2.575972         0.005964        -1.485803
 C        -2.674590        -1.110722        -2.469167
 C        -1.935005        -1.227869        -1.061711
 C        -0.423021        -1.206525        -0.654215
 C        -0.016902         0.019096         0.064564
 O         0.808238        -0.069396         0.968497
 C        -0.676051         1.320068        -0.442468
 C        -1.552517         1.189925        -1.738949
 H        -3.746211         0.190920         0.008371
 H        -3.493251        -1.666797        -2.712006
 H        -2.146337        -1.154451        -3.418124
 H        -2.486921        -1.953695        -0.513050
 H        -0.201607        -2.139975        -0.141550
 H         0.284994        -1.137341        -1.527330
 H        -1.513349         1.634338         0.237199
 H        -0.001652         2.227260        -0.317670
 H        -1.991480         2.193720        -1.765235
 H        -1.037980         0.853500        -2.625132
