19
Iteration:  1114charge 0 multiplicity 1
 O        -4.017016         0.279816        -1.287699
 C        -2.614294         0.065103        -1.493264
 C        -2.315383        -1.028603        -2.533253
 C        -2.099613        -1.194127        -0.901474
 C        -0.663962        -1.357913        -0.230435
 C         0.020142        -0.068087         0.058171
 O         1.220301        -0.013770         0.319339
 C        -0.887686         1.266875        -0.048447
 C        -1.627844         1.276136        -1.475708
 H        -4.202862         0.522223        -0.316393
 H        -3.264248        -1.509001        -2.953618
 H        -1.406227        -0.967223        -3.106377
 H        -2.901112        -1.735702        -0.399256
 H        -0.733686        -1.760437         0.797093
 H        -0.151403        -2.022870        -0.878966
 H        -1.603902         1.254903         0.743977
 H        -0.262845         2.149832         0.089133
 H        -2.145740         2.228847        -1.505618
 H        -0.877615         1.349601        -2.276057
