19
Iteration:  3286
 O        -4.015503         0.281534        -1.589882
 C        -2.614823         0.066072        -1.367502
 C        -1.915267        -0.999132        -2.260720
 C        -2.109417        -1.320066        -0.858816
 C        -0.874457        -1.315967        -0.008324
 C        -0.015568        -0.070250        -0.121311
 O         1.225475         0.041908        -0.214890
 C        -0.817537         1.190374         0.049929
 C        -1.843023         1.317231        -1.071582
 H        -4.372220         0.739106        -0.881037
 H        -2.631586        -1.301789        -2.987977
 H        -0.930032        -0.928468        -2.780620
 H        -2.820265        -2.173194        -0.731611
 H        -1.036177        -1.243711         1.054997
 H        -0.238147        -2.158761        -0.260197
 H        -1.357781         0.883640         0.940517
 H        -0.308568         2.097891         0.318516
 H        -2.563094         2.286304        -0.936520
 H        -1.380628         1.483908        -2.015742
