19
Iteration:  4639charge 0 multiplicity 1
 O        -4.119726         0.153994        -1.221112
 C        -2.693213         0.092427        -1.283646
 C        -2.168505        -0.682043        -2.539234
 C        -1.998404        -1.249760        -1.086236
 C        -0.610230        -1.368571        -0.401581
 C         0.082199        -0.080456        -0.016189
 O         1.022849        -0.010328         0.733194
 C        -0.509899         1.120302        -0.743772
 C        -1.985342         1.321804        -1.039622
 H        -4.455957        -0.176452        -0.396616
 H        -2.897063        -1.420114        -3.160972
 H        -1.231805        -0.314796        -2.971629
 H        -2.798606        -2.001539        -0.898793
 H        -0.582620        -1.989391         0.559601
 H         0.140710        -1.769531        -1.202688
 H        -0.316262         1.995851        -0.204673
 H         0.129563         1.118330        -1.610825
 H        -2.236133         1.662026        -0.014343
 H        -2.174251         2.032848        -1.741724
