19
Iteration:  4119
 O        -4.037708         0.188899        -1.144053
 C        -2.597582         0.095751        -1.463952
 C        -2.256727        -0.989953        -2.474856
 C        -2.077207        -1.251406        -0.929578
 C        -0.638898        -1.380459        -0.397536
 C        -0.041389        -0.007219        -0.044305
 O         1.162360         0.010730         0.416578
 C        -0.837005         1.294690        -0.150935
 C        -1.712566         1.298387        -1.413377
 H        -4.040015         0.576588        -0.169617
 H        -3.039664        -1.685951        -2.929361
 H        -1.314909        -0.896266        -3.103245
 H        -2.798992        -1.936647        -0.451037
 H        -0.303336        -2.042060         0.377034
 H         0.012274        -1.767229        -1.268389
 H        -1.549739         1.230873         0.660883
 H        -0.212642         2.249974        -0.006419
 H        -2.375137         2.178828        -1.507635
 H        -1.004223         1.459850        -2.251405
