19
Iteration:   601
 O        -3.818023         0.353060        -1.095598
 C        -2.548572         0.059295        -1.531020
 C        -2.515682        -1.108848        -2.384320
 C        -2.016949        -1.222713        -0.959967
 C        -0.549605        -1.381366        -0.558564
 C        -0.036479        -0.018969        -0.024622
 O         0.980563         0.056345         0.655407
 C        -0.896949         1.170650        -0.185801
 C        -1.618804         1.266984        -1.573601
 H        -3.762665         1.072394        -0.330684
 H        -3.559198        -1.405820        -2.544658
 H        -1.755136        -1.182019        -3.178663
 H        -2.641174        -1.502803        -0.154993
 H        -0.533724        -2.230686         0.157690
 H         0.185200        -1.726620        -1.299545
 H        -1.587152         1.257726         0.627734
 H        -0.229174         2.026319        -0.238439
 H        -2.244804         2.171350        -1.789699
 H        -0.841804         1.070650        -2.366630
