19
Iteration:  3986
 O        -3.927510         0.319450        -0.968701
 C        -2.636069        -0.055135        -1.460604
 C        -2.598245        -1.123400        -2.507522
 C        -1.954958        -1.334697        -1.099041
 C        -0.379412        -1.222023        -0.748060
 C         0.002521         0.023244         0.033314
 O         0.953649         0.011162         0.891815
 C        -0.746616         1.293451        -0.337355
 C        -1.739468         1.255861        -1.516861
 H        -3.933916         0.906414        -0.102296
 H        -3.597382        -1.679841        -2.618755
 H        -1.828513        -1.029963        -3.367978
 H        -2.374489        -1.861804        -0.221562
 H        -0.172485        -1.976074         0.017833
 H         0.322343        -1.312059        -1.647500
 H        -1.345379         1.628097         0.528775
 H         0.004211         2.115622        -0.467591
 H        -2.324122         2.113844        -1.597865
 H        -1.113278         1.035812        -2.424092
