19
Iteration:  1939charge 0 multiplicity 1
 O        -4.042144         0.273018        -1.419351
 C        -2.632406         0.071288        -1.466720
 C        -2.228299        -1.064363        -2.397723
 C        -2.143065        -1.283410        -0.837224
 C        -0.766197        -1.228493        -0.158538
 C         0.069655         0.005216         0.026481
 O         1.300982        -0.022888         0.075125
 C        -0.886790         1.201509         0.091077
 C        -1.653098         1.265215        -1.333142
 H        -4.191382         0.878917        -2.091181
 H        -3.103917        -1.558625        -2.881437
 H        -1.363724        -0.924205        -3.068200
 H        -2.913980        -1.966861        -0.486750
 H        -0.801272        -1.619094         0.916041
 H        -0.079249        -1.926379        -0.693699
 H        -1.604235         1.079475         0.943402
 H        -0.393268         2.146541         0.406431
 H        -2.287674         2.239609        -1.138971
 H        -1.078377         1.323142        -2.282885
