19
Iteration:  2389
 O        -3.970422         0.281917        -1.442123
 C        -2.570124         0.092325        -1.345797
 C        -2.049893        -0.979350        -2.392274
 C        -2.100383        -1.334058        -0.943975
 C        -0.891373        -1.373792         0.028272
 C        -0.049192        -0.015780        -0.101684
 O         1.192216         0.028241        -0.010689
 C        -0.781847         1.238030        -0.045255
 C        -1.759051         1.346251        -1.234667
 H        -4.513717        -0.543503        -1.285148
 H        -2.841362        -1.308033        -3.200716
 H        -1.092936        -0.769401        -2.890229
 H        -2.802980        -2.164580        -0.618049
 H        -1.097173        -1.405034         1.121959
 H        -0.195396        -2.251156        -0.105083
 H        -1.362215         1.124649         0.884053
 H         0.005597         2.055449         0.120248
 H        -2.428809         2.117560        -0.938337
 H        -1.356882         1.784316        -2.223824
