19
Iteration:   206charge 0 multiplicity 1
 O        -4.042895         0.086328        -1.527370
 C        -2.531064         0.097370        -1.432327
 C        -1.896762        -1.030357        -2.316754
 C        -2.123447        -1.134888        -0.867229
 C        -0.956478        -1.186217         0.090302
 C        -0.016506        -0.008683        -0.047519
 O         1.184841        -0.263168        -0.227817
 C        -0.747528         1.371754         0.010491
 C        -1.827189         1.394091        -1.161310
 H        -4.449504        -0.097712        -0.674634
 H        -2.672163        -1.487704        -2.861850
 H        -0.955489        -1.002650        -2.775126
 H        -2.952604        -1.797568        -0.596996
 H        -1.398759        -1.142550         1.107913
 H        -0.332326        -2.042031         0.027158
 H        -1.274910         1.516144         1.000180
 H         0.058370         2.110442        -0.069749
 H        -2.404457         2.294833        -1.149401
 H        -1.262635         1.710472        -2.049232
