19
Iteration:  2478
 O        -4.007242         0.294148        -1.305230
 C        -2.611142         0.086612        -1.439093
 C        -2.105093        -1.024665        -2.415499
 C        -2.080045        -1.267399        -0.907084
 C        -0.732102        -1.432686        -0.140990
 C        -0.025973        -0.049382        -0.010581
 O         1.160302         0.036803         0.193755
 C        -0.717428         1.246211        -0.217188
 C        -1.837719         1.352845        -1.218885
 H        -4.466662        -0.153946        -2.070295
 H        -2.943965        -1.487641        -2.965822
 H        -1.186707        -0.950385        -3.083820
 H        -2.888612        -1.965291        -0.630866
 H        -1.059608        -1.591636         0.890745
 H        -0.083293        -2.189957        -0.640196
 H        -1.227635         1.420426         0.763078
 H        -0.023853         2.112650        -0.142123
 H        -2.450144         2.116985        -0.815012
 H        -1.364939         1.738869        -2.118067
