19
Iteration:   994charge 0 multiplicity 1
 O        -3.866402         0.409710        -1.163357
 C        -2.611611         0.072108        -1.591791
 C        -2.538062        -1.181751        -2.298828
 C        -1.958315        -1.286630        -0.927151
 C        -0.486839        -1.314132        -0.664225
 C        -0.023634         0.007375         0.025292
 O         1.031132        -0.065040         0.733065
 C        -0.893148         1.224682        -0.253839
 C        -1.658408         1.319469        -1.517877
 H        -3.899885         0.967946        -0.467711
 H        -3.481707        -1.677631        -2.405334
 H        -1.793416        -1.323788        -3.139081
 H        -2.539506        -1.764748        -0.161900
 H        -0.279853        -2.132283         0.060557
 H         0.086800        -1.209131        -1.597227
 H        -1.643588         1.205655         0.576050
 H        -0.229287         2.049146         0.014611
 H        -2.335867         2.152239        -1.609672
 H        -1.043264         1.403974        -2.419906
