19
Iteration:  2752
 O        -4.056386         0.259711        -1.295446
 C        -2.631717         0.085405        -1.485780
 C        -2.160530        -0.896959        -2.426604
 C        -2.033853        -1.235340        -0.973707
 C        -0.701577        -1.371242        -0.159623
 C         0.002085        -0.084185         0.023089
 O         1.181594        -0.000997         0.228351
 C        -0.813455         1.213012        -0.139320
 C        -1.785292         1.302383        -1.358812
 H        -4.213161         0.296920        -0.367476
 H        -2.955883        -1.519045        -3.013361
 H        -1.231471        -0.722268        -2.896038
 H        -2.701139        -1.963645        -0.543227
 H        -0.923901        -1.818122         0.796651
 H        -0.022840        -2.140415        -0.581057
 H        -1.291001         1.214315         0.833291
 H        -0.064060         1.962758        -0.197012
 H        -2.458662         2.136148        -1.256269
 H        -1.214403         1.540116        -2.249471
