19
Iteration:  2232
 O        -4.045325         0.367740        -1.448043
 C        -2.645307         0.030639        -1.430673
 C        -1.990168        -0.991255        -2.330887
 C        -2.100100        -1.255763        -0.836893
 C        -0.809886        -1.369602         0.012928
 C        -0.003796        -0.087485        -0.057601
 O         1.272007         0.028504        -0.062910
 C        -0.851028         1.183707        -0.003060
 C        -1.835172         1.331577        -1.218032
 H        -4.243402         0.221392        -2.459771
 H        -2.705100        -1.633621        -2.974342
 H        -1.004533        -0.953063        -2.715627
 H        -2.846437        -2.095506        -0.614026
 H        -0.995555        -1.461330         1.109343
 H        -0.205011        -2.173332        -0.414394
 H        -1.327369         1.288327         1.042727
 H        -0.094160         1.947639        -0.124469
 H        -2.661449         2.169449        -0.979208
 H        -1.280167         1.534458        -2.122056
