19
Iteration:  4466
 O        -4.124508         0.222739        -1.615833
 C        -2.647582         0.019047        -1.395045
 C        -1.949466        -0.796430        -2.335859
 C        -2.000101        -1.294918        -0.938891
 C        -0.840408        -1.379693         0.028888
 C         0.053203        -0.098157        -0.113266
 O         1.295086        -0.085306        -0.001407
 C        -0.671096         1.324024        -0.282613
 C        -2.065283         1.332474        -0.814096
 H        -4.634497         0.100403        -0.769213
 H        -2.636387        -1.396643        -2.996598
 H        -0.971352        -0.631534        -2.946939
 H        -2.514790        -2.232788        -1.095944
 H        -1.212866        -1.261127         1.002447
 H        -0.437026        -2.320005        -0.075027
 H        -0.604761         1.813545         0.657696
 H         0.081345         1.889898        -0.946852
 H        -2.683366         1.713548         0.014606
 H        -2.225969         2.125182        -1.567769
