19
Iteration:  3487charge 0 multiplicity 1
 O        -3.932606         0.315520        -1.285243
 C        -2.593051         0.042182        -1.417559
 C        -2.363147        -1.147628        -2.451451
 C        -2.066061        -1.288596        -0.977830
 C        -0.673088        -1.311485        -0.426920
 C         0.043166         0.098654        -0.073983
 O         1.121391         0.072436         0.377427
 C        -0.825606         1.226169        -0.031005
 C        -1.651766         1.266069        -1.306219
 H        -4.363160        -0.041548        -0.399179
 H        -3.430431        -1.344308        -2.699821
 H        -1.635216        -0.822899        -3.245055
 H        -2.719036        -1.972075        -0.357595
 H        -0.739250        -1.893718         0.450418
 H        -0.025709        -1.827362        -1.167252
 H        -1.438554         0.877593         0.845788
 H        -0.449899         2.248398         0.200712
 H        -2.402742         2.052226        -1.531901
 H        -0.819580         1.180773        -2.141619
