19
Iteration:  2888
 O        -3.959914         0.307269        -1.405019
 C        -2.555618         0.004507        -1.494310
 C        -2.055019        -0.986866        -2.514897
 C        -2.026709        -1.284814        -0.896686
 C        -0.790045        -1.324710         0.001487
 C        -0.076371         0.002374        -0.024820
 O         1.132966        -0.048193        -0.142516
 C        -0.885545         1.243656         0.166294
 C        -1.785833         1.301300        -1.235398
 H        -4.011184         0.672045        -0.455231
 H        -2.776737        -1.679593        -3.174081
 H        -1.105673        -0.878062        -3.005437
 H        -2.871581        -1.859798        -0.496329
 H        -0.988704        -1.472555         1.091073
 H        -0.054262        -2.087155        -0.295634
 H        -1.588669         1.120069         1.016933
 H        -0.103945         2.086606         0.358958
 H        -2.545906         2.107733        -1.151543
 H        -1.183956         1.658435        -1.961755
