19
Iteration:  4523
 O        -4.118212         0.028170        -1.553803
 C        -2.700002         0.116004        -1.325412
 C        -1.943872        -0.664802        -2.423064
 C        -1.990250        -1.281725        -1.012746
 C        -0.808643        -1.318651        -0.072430
 C         0.035832        -0.072292        -0.130832
 O         1.181672        -0.131922         0.294043
 C        -0.545354         1.220782        -0.706641
 C        -2.093376         1.372876        -0.607853
 H        -4.489723         0.451151        -0.730825
 H        -2.583760        -1.119010        -3.252509
 H        -0.994440        -0.228370        -2.569874
 H        -2.702552        -2.134646        -0.939793
 H        -1.104011        -1.289729         0.939530
 H        -0.206419        -2.150177        -0.215300
 H        -0.020168         1.925887        -0.017754
 H        -0.015673         1.375598        -1.688394
 H        -2.414429         1.400090         0.424376
 H        -2.502667         2.230263        -1.246272
