19
Iteration:   324charge 0 multiplicity 1
 O        -4.026114         0.350179        -1.703607
 C        -2.600949         0.019478        -1.402460
 C        -2.056035        -1.140142        -2.235332
 C        -2.154225        -1.243725        -0.759077
 C        -0.814598        -1.310938         0.068420
 C         0.049761        -0.029799        -0.054455
 O         1.263112        -0.028631        -0.188572
 C        -0.791177         1.250029        -0.013970
 C        -1.819043         1.304437        -1.115892
 H        -4.118130         1.208979        -1.332203
 H        -3.040411        -1.538516        -2.656260
 H        -1.154806        -1.220233        -2.806540
 H        -2.788412        -2.079733        -0.421701
 H        -1.170417        -1.391310         1.124029
 H        -0.121607        -2.129022        -0.219808
 H        -1.324831         1.165257         0.914799
 H        -0.266468         2.208353        -0.003919
 H        -2.606390         1.993306        -0.804661
 H        -1.521629         1.723388        -2.182144
