19
Iteration:  4782
 O        -3.936225         0.225257        -0.883624
 C        -2.639788         0.054982        -1.442890
 C        -2.250926        -0.793420        -2.625917
 C        -1.969438        -1.303531        -1.202487
 C        -0.613080        -1.326914        -0.608880
 C        -0.081960        -0.060443        -0.040645
 O         0.733830        -0.009719         0.946490
 C        -0.305529         1.191882        -0.867590
 C        -1.907316         1.328202        -0.966373
 H        -4.167830        -0.596247        -0.520074
 H        -3.076148        -1.316064        -3.127269
 H        -1.402992        -0.275946        -3.348762
 H        -2.543908        -2.179493        -0.999536
 H        -0.643589        -2.049497         0.247590
 H         0.113881        -1.628069        -1.313381
 H        -0.009546         2.031821        -0.326045
 H         0.253654         1.072121        -1.826694
 H        -2.286909         1.475616         0.106599
 H        -2.358680         2.212203        -1.597914
