19
Iteration:  2346
 O        -3.964935         0.385349        -1.350059
 C        -2.601160         0.009193        -1.481590
 C        -1.884649        -1.050733        -2.429154
 C        -2.092784        -1.243183        -0.887612
 C        -0.848736        -1.274566         0.080830
 C        -0.068724        -0.006356         0.063140
 O         1.136131        -0.064563        -0.252828
 C        -0.897263         1.229691         0.092413
 C        -1.714154         1.315814        -1.220541
 H        -4.484420        -0.537039        -1.390651
 H        -2.679650        -1.578417        -3.079053
 H        -1.003486        -0.684065        -3.009359
 H        -2.826245        -2.083694        -0.805215
 H        -1.244482        -1.550613         1.114100
 H        -0.143554        -2.126911        -0.143200
 H        -1.760248         1.064428         0.686741
 H        -0.431511         2.219143         0.322209
 H        -2.363302         2.182447        -1.193900
 H        -1.070615         1.491987        -2.267790
