19
Iteration:  1166charge 0 multiplicity 1
 O        -3.947241         0.353812        -1.495290
 C        -2.642790         0.052954        -1.505168
 C        -2.185928        -1.053012        -2.309962
 C        -2.132495        -1.301989        -0.885314
 C        -0.812775        -1.413935        -0.202510
 C         0.030101         0.024110        -0.043012
 O         1.268968         0.027840         0.148130
 C        -0.824680         1.253327        -0.022920
 C        -1.757826         1.284492        -1.231539
 H        -4.269949         0.542973        -0.680079
 H        -2.981592        -1.590612        -2.936439
 H        -1.272368        -1.043867        -2.854846
 H        -2.919497        -1.880378        -0.439582
 H        -0.926015        -1.764275         0.824911
 H        -0.288027        -2.094818        -0.858427
 H        -1.460978         0.972346         0.895655
 H        -0.224979         2.094421         0.245833
 H        -2.337793         2.165984        -0.979360
 H        -1.107042         1.625072        -2.063138
