19
Iteration:  3790
 O        -3.902121         0.274960        -0.806540
 C        -2.547385        -0.000013        -1.369199
 C        -2.581217        -1.111237        -2.424120
 C        -1.807155        -1.246260        -1.046542
 C        -0.321215        -1.177825        -0.935288
 C        -0.018451         0.063219        -0.071158
 O         0.518368        -0.149280         1.051839
 C        -0.616049         1.453168        -0.555688
 C        -1.705845         1.120376        -1.569837
 H        -3.943378         0.379146         0.240732
 H        -3.533316        -1.547401        -2.669378
 H        -1.789632        -1.149396        -3.229343
 H        -2.252925        -1.679874        -0.175468
 H         0.156748        -1.994783        -0.388745
 H         0.067109        -1.026921        -1.940611
 H        -0.974010         1.959671         0.361680
 H         0.329474         2.003744        -0.871049
 H        -2.214400         2.141955        -1.828272
 H        -1.123306         0.959524        -2.514487
