19
Iteration:  2091
 O        -4.021970         0.188322        -1.413553
 C        -2.559010         0.057769        -1.511578
 C        -2.143258        -1.061910        -2.396235
 C        -2.189766        -1.133009        -0.814751
 C        -0.752031        -1.414762        -0.166115
 C         0.076209        -0.067707         0.011995
 O         1.289240        -0.064298         0.169878
 C        -0.746230         1.312276        -0.101118
 C        -1.931342         1.424619        -1.207503
 H        -4.276535         0.459079        -2.232267
 H        -2.990492        -1.649474        -2.780718
 H        -1.213496        -1.097790        -2.993220
 H        -3.043251        -1.656966        -0.361275
 H        -0.852234        -1.844903         0.827601
 H        -0.221589        -2.056902        -0.872734
 H        -1.357293         1.394425         0.879391
 H         0.017766         2.078540        -0.125702
 H        -2.524181         2.224008        -0.843719
 H        -1.427308         2.033075        -2.165675
