19
Iteration:  3151charge 0 multiplicity 1
 O        -3.924605         0.036304        -1.759690
 C        -2.604114         0.129304        -1.293552
 C        -1.795549        -0.868036        -2.224824
 C        -2.155035        -1.159980        -0.768301
 C        -0.915414        -1.344387         0.060239
 C        -0.034304        -0.058442        -0.151318
 O         1.186905        -0.198051        -0.350370
 C        -0.715314         1.282153         0.032865
 C        -2.014038         1.427230        -0.929186
 H        -4.512772         0.622436        -1.291607
 H        -2.573423        -1.370631        -2.969452
 H        -0.808872        -0.536931        -2.465346
 H        -2.991407        -1.843783        -0.711641
 H        -1.144359        -1.331110         1.145460
 H        -0.172715        -2.113616        -0.145325
 H        -0.997980         1.311158         1.113510
 H        -0.044086         2.144012        -0.156872
 H        -2.823997         2.066325        -0.366818
 H        -1.879062         2.008968        -1.926051
