19
Iteration:   760
 O        -3.774194         0.332833        -0.775789
 C        -2.514874         0.016004        -1.456538
 C        -2.763856        -1.082529        -2.396644
 C        -1.914775        -1.251092        -1.117691
 C        -0.343032        -1.177070        -0.887257
 C        -0.043778        -0.078611         0.038734
 O         0.589848         0.037963         1.136880
 C        -0.679196         1.260919        -0.502118
 C        -1.539309         1.150176        -1.759212
 H        -3.640962         0.284746         0.098315
 H        -3.709596        -1.517338        -2.558037
 H        -2.220736        -1.120213        -3.406497
 H        -2.356823        -1.831726        -0.358963
 H        -0.108051        -2.088166        -0.353891
 H         0.222934        -1.082014        -1.839528
 H        -1.259996         1.810756         0.246115
 H         0.109789         1.956437        -0.706765
 H        -2.100717         2.061160        -2.031565
 H        -0.977626         0.822652        -2.644550
