19
Iteration:  4588charge 0 multiplicity 1
 O        -4.046272         0.167996        -1.308958
 C        -2.630735         0.086340        -1.360897
 C        -2.054487        -0.758871        -2.470430
 C        -2.012962        -1.255496        -1.038932
 C        -0.793118        -1.280216        -0.276886
 C         0.026099        -0.068750        -0.162733
 O         1.066289        -0.070825         0.586255
 C        -0.442154         1.235996        -0.796920
 C        -2.065212         1.247524        -0.765535
 H        -4.335212        -0.595598        -0.885823
 H        -2.874688        -1.171070        -3.195707
 H        -1.172633        -0.377076        -2.988371
 H        -2.629743        -2.124301        -0.807066
 H        -1.148946        -1.503254         0.787858
 H        -0.125561        -2.043636        -0.600637
 H        -0.195956         2.107167        -0.154827
 H        -0.006878         1.424407        -1.839327
 H        -2.309943         1.384439         0.333624
 H        -2.415723         2.144738        -1.400930
