19
Iteration:   350charge 0 multiplicity 1
 O        -4.032896         0.341502        -1.523245
 C        -2.624047        -0.040182        -1.421565
 C        -2.020000        -1.032515        -2.301806
 C        -2.184062        -1.305586        -0.727795
 C        -0.805217        -1.333666        -0.012553
 C        -0.069709        -0.020549        -0.052938
 O         1.150241        -0.033996        -0.161384
 C        -0.776536         1.349244         0.022020
 C        -1.707141         1.200634        -1.221711
 H        -3.989123         1.348591        -1.508879
 H        -2.470519        -1.641759        -3.069340
 H        -0.946605        -0.685842        -2.360260
 H        -2.917589        -2.017507        -0.304851
 H        -1.010419        -1.439232         1.081455
 H        -0.046089        -2.012213        -0.400014
 H        -1.197332         1.665064         1.042409
 H        -0.045327         2.127158        -0.221218
 H        -2.470708         1.987839        -1.338361
 H        -1.114753         1.212077        -2.177958
