19
Iteration:  3400
 O        -3.993699         0.189260        -1.308533
 C        -2.575435         0.031744        -1.446760
 C        -2.306204        -0.988574        -2.560917
 C        -2.023109        -1.233161        -1.011277
 C        -0.759803        -1.302310        -0.183955
 C        -0.007539        -0.010845         0.006436
 O         1.222012         0.024582         0.202366
 C        -0.796518         1.269061        -0.018259
 C        -1.757361         1.279520        -1.260407
 H        -4.220785         0.490806        -0.386490
 H        -3.088518        -1.663759        -2.778831
 H        -1.532040        -1.021324        -3.424533
 H        -2.792286        -1.950413        -0.700983
 H        -1.029159        -1.573028         0.852201
 H        -0.049134        -2.094691        -0.479602
 H        -1.321590         1.321205         0.896094
 H        -0.144085         2.132330        -0.160569
 H        -2.397226         2.163718        -1.198094
 H        -0.927293         1.508601        -2.016543
