19
Iteration:  1194
 O        -4.024351         0.192909        -1.545702
 C        -2.591372         0.119071        -1.567594
 C        -2.170196        -0.976621        -2.309006
 C        -2.054582        -1.136033        -0.819004
 C        -0.722570        -1.379308        -0.091350
 C         0.015910        -0.043619        -0.008985
 O         1.224319        -0.087698        -0.005225
 C        -0.889634         1.186444         0.032529
 C        -1.768200         1.370419        -1.229066
 H        -4.366546         0.671449        -0.813971
 H        -2.837649        -1.474541        -2.971074
 H        -1.229270        -0.867971        -2.875599
 H        -2.928203        -1.515591        -0.277550
 H        -1.051099        -1.464305         0.964244
 H        -0.115071        -2.307691        -0.379385
 H        -1.481327         0.957498         0.892418
 H        -0.158303         1.986846         0.390598
 H        -2.414938         2.276114        -1.061127
 H        -1.009896         1.644908        -1.957536
