19
Iteration:  1895charge 0 multiplicity 1
 O        -4.030932         0.325649        -1.297659
 C        -2.605332         0.073186        -1.489183
 C        -2.129635        -1.028421        -2.377228
 C        -2.065033        -1.256709        -0.869187
 C        -0.718542        -1.457565        -0.224895
 C        -0.024399        -0.062946         0.024501
 O         1.153644        -0.023473         0.216593
 C        -0.763288         1.222205        -0.161470
 C        -1.778830         1.453975        -1.278940
 H        -4.521669         0.103012        -2.076672
 H        -2.922176        -1.742840        -2.824709
 H        -1.186483        -0.835114        -2.797897
 H        -2.819619        -1.955374        -0.464883
 H        -0.878566        -1.882263         0.811548
 H        -0.009800        -2.074667        -0.831725
 H        -1.198951         1.531839         0.811910
 H         0.129059         1.922532        -0.220207
 H        -2.757144         2.137044        -1.163503
 H        -1.339638         1.919082        -2.216221
