19
Iteration:  2722charge 0 multiplicity 1
 O        -3.986743         0.322070        -1.238234
 C        -2.645804         0.009832        -1.503002
 C        -2.228940        -1.009800        -2.544671
 C        -2.084038        -1.373656        -1.058611
 C        -0.749902        -1.233664        -0.166542
 C         0.034693         0.069804        -0.109911
 O         1.186827        -0.086254         0.331328
 C        -0.744220         1.324741        -0.109578
 C        -1.789894         1.293893        -1.253933
 H        -4.232827        -0.231994        -0.464229
 H        -2.831720        -1.699634        -3.208242
 H        -1.204671        -1.018597        -2.952204
 H        -2.893618        -1.960868        -0.544448
 H        -1.067849        -1.489934         0.875127
 H        -0.046833        -2.001572        -0.496038
 H        -1.025007         1.109272         0.991422
 H        -0.183747         2.255153        -0.118693
 H        -2.561119         2.055836        -1.299157
 H        -1.219510         1.521396        -2.113252
