19
Iteration:  3066
 O        -4.019914         0.087187        -1.583736
 C        -2.580319         0.073901        -1.352459
 C        -1.847190        -0.826705        -2.365132
 C        -2.179174        -1.232650        -0.877498
 C        -0.994483        -1.326828         0.079116
 C        -0.007583        -0.111111        -0.121595
 O         1.233630        -0.088972        -0.148609
 C        -0.664075         1.307590        -0.154401
 C        -1.928098         1.422653        -0.952331
 H        -4.466276        -0.255850        -0.756059
 H        -2.458636        -1.223696        -3.239038
 H        -0.826621        -0.568076        -2.627208
 H        -2.842688        -2.118720        -0.740827
 H        -1.366778        -1.334313         1.109839
 H        -0.454157        -2.281942        -0.060064
 H        -0.916846         1.387748         0.909740
 H         0.038676         2.101421        -0.377063
 H        -2.666438         2.165034        -0.515607
 H        -1.609098         1.749521        -1.870244
