19
Iteration:  1487
 O        -4.069661         0.168057        -1.693939
 C        -2.636881         0.127661        -1.375548
 C        -1.916708        -0.874350        -2.319649
 C        -2.151882        -1.234469        -0.855467
 C        -0.879600        -1.318971         0.004808
 C         0.074461        -0.116697        -0.029265
 O         1.273282        -0.207955        -0.064825
 C        -0.729294         1.276842        -0.154811
 C        -1.939166         1.414680        -1.004829
 H        -4.662218         0.125287        -0.817021
 H        -2.501696        -1.167189        -3.172128
 H        -0.850388        -0.573641        -2.336739
 H        -2.887209        -1.938788        -0.483619
 H        -1.035965        -1.428368         1.074131
 H        -0.209413        -2.169483        -0.166106
 H        -0.957721         1.470639         0.857177
 H        -0.162022         2.201184        -0.323315
 H        -2.681518         2.097521        -0.574200
 H        -1.720857         1.992102        -1.919045
