19
Iteration:  1431charge 0 multiplicity 1
 O        -3.966685         0.233126        -1.585519
 C        -2.596353         0.028798        -1.440729
 C        -1.814807        -0.865476        -2.317597
 C        -2.114949        -1.295441        -0.928601
 C        -0.985617        -1.273730         0.094408
 C         0.019321        -0.161706         0.006432
 O         1.189770        -0.184583        -0.222822
 C        -0.684423         1.304357        -0.031592
 C        -2.043596         1.405155        -1.042887
 H        -4.365123         0.635738        -0.667119
 H        -2.331744        -1.320746        -3.147665
 H        -0.795552        -0.567466        -2.702171
 H        -2.712879        -2.183665        -0.826100
 H        -1.293364        -0.933859         1.085656
 H        -0.362365        -2.200935         0.145960
 H        -0.990606         1.476546         0.971165
 H        -0.098713         2.182082        -0.328866
 H        -2.801722         1.864576        -0.484997
 H        -1.733142         1.834839        -2.003873
