19
Iteration:  1620
 O        -4.004957         0.322626        -1.511935
 C        -2.627773         0.079709        -1.375500
 C        -1.939644        -1.031331        -2.387556
 C        -2.095655        -1.197334        -0.887056
 C        -0.825857        -1.410039        -0.029792
 C        -0.046064        -0.082060        -0.088560
 O         1.169963        -0.104657        -0.062948
 C        -0.855472         1.310939         0.023267
 C        -1.792733         1.411708        -1.147649
 H        -4.414999        -0.351963        -0.851143
 H        -2.414000        -1.747013        -3.031255
 H        -1.106350        -0.574882        -2.992070
 H        -2.787056        -2.060982        -0.677192
 H        -1.021666        -1.477654         1.045420
 H        -0.297780        -2.313709        -0.410352
 H        -1.255651         1.257467         1.110422
 H        -0.008857         2.129028        -0.026892
 H        -2.485224         2.304607        -0.991567
 H        -1.215297         1.652187        -2.071263
