19
Iteration:  3279
 O        -3.978046         0.258572        -1.588137
 C        -2.624305         0.088170        -1.298836
 C        -1.863324        -0.931816        -2.238425
 C        -2.160668        -1.341893        -0.876265
 C        -0.894641        -1.390613         0.031514
 C         0.013037        -0.049792        -0.162594
 O         1.239427         0.046106        -0.236469
 C        -0.883491         1.171675         0.073889
 C        -1.861566         1.361900        -1.137658
 H        -4.238311         0.769784        -0.818214
 H        -2.484915        -1.501710        -3.032388
 H        -0.963036        -0.702399        -2.724007
 H        -2.900245        -2.104479        -0.750189
 H        -1.029205        -1.334635         1.141695
 H        -0.376384        -2.358047        -0.180558
 H        -1.378654         1.023544         1.046223
 H        -0.147674         2.036247         0.120395
 H        -2.606645         2.080906        -1.030739
 H        -1.318174         1.604419        -2.093948
