19
Iteration:  1663
 O        -3.925582         0.386092        -1.484653
 C        -2.559246         0.012915        -1.487820
 C        -2.130855        -1.042836        -2.422747
 C        -2.104334        -1.242518        -0.849374
 C        -0.856517        -1.355562        -0.014550
 C         0.025069        -0.043536        -0.061373
 O         1.210150         0.047589        -0.102523
 C        -0.887299         1.177703         0.140918
 C        -1.706421         1.316188        -1.136880
 H        -4.442871        -0.402543        -1.431300
 H        -2.977155        -1.491841        -2.849646
 H        -1.211539        -0.778373        -3.063561
 H        -3.010910        -1.873428        -0.675879
 H        -1.188753        -1.487970         0.989668
 H        -0.234139        -2.220088        -0.272148
 H        -1.701325         1.040058         0.873875
 H        -0.274319         2.138766         0.218169
 H        -2.416824         2.146295        -1.246642
 H        -1.013098         1.411225        -1.970435
