19
Iteration:  1394charge 0 multiplicity 1
 O        -3.993704         0.115771        -1.793490
 C        -2.626215         0.136779        -1.385652
 C        -1.842960        -0.816194        -2.216397
 C        -2.122848        -1.242276        -0.781762
 C        -0.856879        -1.242507         0.117518
 C        -0.047038        -0.148144        -0.050458
 O         1.120269        -0.214390        -0.300654
 C        -0.681765         1.245883        -0.038328
 C        -1.923940         1.458756        -0.973774
 H        -4.449837         0.155749        -0.875239
 H        -2.494868        -1.258183        -2.983712
 H        -0.853294        -0.484465        -2.453517
 H        -2.842930        -2.101958        -0.698051
 H        -1.148576        -1.369619         1.140743
 H        -0.444040        -2.233020        -0.091538
 H        -1.010141         1.271137         1.014669
 H         0.170476         1.930906        -0.083930
 H        -2.628838         2.168189        -0.512348
 H        -1.666430         2.061264        -1.831130
