19
Iteration:  2715charge 0 multiplicity 1
 O        -3.994206         0.291572        -1.247770
 C        -2.640201         0.020582        -1.540057
 C        -2.275137        -1.010072        -2.511504
 C        -2.055382        -1.324386        -1.003510
 C        -0.738820        -1.250990        -0.173263
 C         0.017013         0.035741        -0.087588
 O         1.170044        -0.068575         0.319226
 C        -0.732217         1.311963        -0.110991
 C        -1.756297         1.272761        -1.250478
 H        -4.164405        -0.372074        -0.652385
 H        -3.010154        -1.326872        -3.158796
 H        -1.222509        -0.911050        -2.966132
 H        -2.827233        -2.054589        -0.733136
 H        -1.116347        -1.484490         0.872369
 H         0.042280        -1.950160        -0.529274
 H        -1.149664         1.361082         0.907260
 H        -0.079928         2.246803        -0.093442
 H        -2.664367         2.046252        -1.240177
 H        -1.012211         1.492096        -2.213049
