19
Iteration:  1014
 O        -4.001216         0.351526        -1.217499
 C        -2.567356         0.097984        -1.535743
 C        -2.524263        -1.233332        -2.383578
 C        -2.023105        -1.146315        -0.926788
 C        -0.526115        -1.282046        -0.606469
 C         0.052234        -0.036235        -0.010321
 O         1.090309        -0.021097         0.675825
 C        -0.857386         1.238397        -0.085890
 C        -1.622464         1.248534        -1.530828
 H        -3.895785         0.630130        -0.284241
 H        -3.510111        -1.592725        -2.509459
 H        -1.693044        -1.153751        -3.203171
 H        -2.802519        -1.496192        -0.261552
 H        -0.431258        -2.165938         0.087591
 H         0.093419        -1.568687        -1.508566
 H        -1.686736         1.307657         0.627540
 H        -0.214175         2.084577         0.055235
 H        -1.992223         2.256334        -1.663552
 H        -1.036743         1.049489        -2.494582
