19
Iteration:  3688
 O        -3.842065         0.261796        -0.891950
 C        -2.578730        -0.033790        -1.411050
 C        -2.568614        -1.086925        -2.504038
 C        -1.961207        -1.249958        -1.004152
 C        -0.499459        -1.181014        -0.773587
 C        -0.011586         0.045341        -0.026946
 O         0.819538         0.021466         0.859741
 C        -0.796702         1.299524        -0.310758
 C        -1.604174         1.177138        -1.617018
 H        -3.717307         0.322154         0.025364
 H        -3.489718        -1.721587        -2.653682
 H        -2.039871        -0.936393        -3.390159
 H        -2.689179        -1.758021        -0.345858
 H        -0.066682        -2.117109        -0.314379
 H         0.030084        -1.108361        -1.708708
 H        -1.529183         1.541350         0.539251
 H         0.001648         2.072677        -0.319405
 H        -1.723659         2.119565        -2.051879
 H        -0.745286         0.692360        -2.254682
