19
Iteration:  2563charge 0 multiplicity 1
 O        -3.903376         0.338648        -1.236172
 C        -2.511828         0.030412        -1.511199
 C        -2.206497        -1.081048        -2.480571
 C        -2.079427        -1.284732        -0.924401
 C        -0.779642        -1.304039        -0.133631
 C        -0.064773        -0.014496         0.022658
 O         1.184951         0.071030         0.101111
 C        -0.954203         1.200675         0.004951
 C        -1.719942         1.241356        -1.319342
 H        -4.016384         1.173316        -1.686431
 H        -3.077301        -1.687383        -2.698605
 H        -1.270463        -1.060667        -3.185513
 H        -2.869952        -1.949715        -0.518197
 H        -0.794681        -1.925016         0.744725
 H        -0.122781        -2.000084        -0.696119
 H        -1.588386         1.094014         0.897434
 H        -0.186387         2.049731         0.025945
 H        -2.349972         2.155071        -1.322241
 H        -0.994726         1.421678        -2.091739
