19
Iteration:  1984
 O        -3.849127         0.363186        -1.222773
 C        -2.509290         0.021919        -1.454702
 C        -2.131312        -1.076109        -2.418532
 C        -2.153932        -1.340448        -0.874898
 C        -0.795073        -1.340073        -0.123126
 C        -0.105732        -0.027868         0.022712
 O         1.121944         0.087286        -0.054878
 C        -0.951540         1.224789         0.022565
 C        -1.623367         1.253987        -1.362965
 H        -4.067307         0.932652        -1.911736
 H        -2.814923        -1.289651        -3.161449
 H        -1.025418        -1.031808        -2.722418
 H        -2.997355        -1.931384        -0.548525
 H        -1.154028        -1.690356         0.891918
 H        -0.105537        -2.128502        -0.465505
 H        -1.861132         1.054776         0.644296
 H        -0.474115         2.080955         0.443953
 H        -2.379244         2.059703        -1.282019
 H        -0.801876         1.424160        -1.974152
