19
Iteration:   240
 O        -3.987911         0.375594        -1.534192
 C        -2.570537         0.036318        -1.380795
 C        -1.886348        -0.973633        -2.410842
 C        -2.002643        -1.361426        -0.831615
 C        -0.992186        -1.249741         0.263822
 C        -0.037468        -0.106067        -0.037578
 O         1.170806        -0.076185        -0.276248
 C        -0.745298         1.288340        -0.049021
 C        -1.839248         1.281725        -1.224825
 H        -4.491344        -0.082854        -0.684189
 H        -2.663276        -1.604991        -2.931135
 H        -1.060410        -0.678900        -3.020428
 H        -2.851696        -2.108068        -0.728631
 H        -1.621003        -0.923722         1.121151
 H        -0.406991        -2.091381         0.590870
 H        -1.327523         1.513634         0.915341
 H         0.020716         2.063118        -0.136942
 H        -2.704606         1.799205        -0.748702
 H        -1.489169         1.617283        -2.179427
