19
Iteration:  2366
 O        -3.960706         0.298136        -1.332540
 C        -2.541041         0.054716        -1.469480
 C        -1.979974        -1.023541        -2.436637
 C        -2.011280        -1.219367        -0.946030
 C        -0.906006        -1.278847        -0.008691
 C        -0.072101         0.003512         0.031359
 O         1.161933        -0.118993        -0.160174
 C        -0.909995         1.291107         0.080773
 C        -1.781563         1.325224        -1.220928
 H        -4.505257        -0.561229        -1.379681
 H        -2.509464        -1.765536        -3.079185
 H        -0.933933        -0.825350        -2.830763
 H        -2.831218        -1.840871        -0.504307
 H        -1.215261        -1.473593         1.028351
 H        -0.229336        -2.147341        -0.193990
 H        -1.436953         1.357924         1.066370
 H        -0.177630         2.149728        -0.022552
 H        -2.500095         2.126238        -1.346912
 H        -1.019137         1.564854        -2.022523
