19
Iteration:  3370charge 0 multiplicity 1
 O        -4.097652         0.325889        -1.357346
 C        -2.632621         0.037425        -1.363521
 C        -2.071027        -0.956630        -2.435533
 C        -2.056253        -1.300578        -0.954278
 C        -0.711480        -1.383382        -0.160725
 C         0.061421        -0.035566        -0.014653
 O         1.254187         0.012988         0.120441
 C        -0.907342         1.203785        -0.091592
 C        -1.838783         1.303282        -1.294293
 H        -4.507364         0.812283        -0.563745
 H        -2.659936        -1.649598        -3.036605
 H        -0.976918        -0.756573        -2.728721
 H        -2.941905        -1.913939        -0.684127
 H        -0.742485        -1.763808         0.930486
 H         0.031208        -2.089503        -0.578456
 H        -1.518461         1.086229         0.908062
 H        -0.340710         2.119804        -0.142436
 H        -2.410062         2.155188        -1.178337
 H        -1.128866         1.438954        -2.161268
