19
Iteration:    30charge 0 multiplicity 1
 O        -3.940346         0.150903        -1.500762
 C        -2.589473        -0.001341        -1.452234
 C        -2.142987        -1.041082        -2.438898
 C        -2.071876        -1.314449        -0.930990
 C        -1.025235        -1.181917         0.093527
 C        -0.021334         0.014732         0.032722
 O         1.217235        -0.105158        -0.100812
 C        -0.650472         1.407692        -0.038397
 C        -1.755198         1.377522        -1.180982
 H        -4.338616        -0.342574        -0.669895
 H        -2.983168        -1.557876        -2.959898
 H        -1.279143        -0.668815        -2.907972
 H        -2.816437        -2.020549        -0.591112
 H        -1.524637        -1.290133         1.092225
 H        -0.445676        -2.099764         0.027363
 H        -1.111949         1.571988         0.965371
 H         0.220946         2.083358        -0.259272
 H        -2.514442         2.171720        -0.869536
 H        -1.115359         1.563774        -2.032505
