19
Iteration:  1896
 O        -4.028370         0.326478        -1.296632
 C        -2.602743         0.064790        -1.489684
 C        -2.130603        -1.032373        -2.372198
 C        -2.075318        -1.255605        -0.872722
 C        -0.710897        -1.452823        -0.228883
 C        -0.019069        -0.068861         0.020783
 O         1.148998        -0.022031         0.213686
 C        -0.762764         1.222713        -0.144410
 C        -1.778817         1.454137        -1.282947
 H        -4.555608         0.099442        -2.125991
 H        -2.922805        -1.720869        -2.806969
 H        -1.170612        -0.842662        -2.799444
 H        -2.826162        -1.933370        -0.449655
 H        -0.853709        -1.842862         0.808554
 H        -0.013428        -2.088984        -0.817713
 H        -1.221589         1.535908         0.799573
 H         0.121552         1.887360        -0.247323
 H        -2.764386         2.159854        -1.194479
 H        -1.322920         1.973375        -2.184630
