19
Iteration:   874charge 0 multiplicity 1
 O        -3.833681         0.387253        -0.804323
 C        -2.517440         0.007991        -1.379918
 C        -2.514210        -1.114174        -2.371371
 C        -1.871312        -1.364859        -1.060278
 C        -0.441308        -1.204359        -0.840534
 C        -0.065914        -0.011576        -0.048816
 O         0.526821        -0.088375         1.047627
 C        -0.572980         1.356438        -0.520815
 C        -1.661851         1.199850        -1.727095
 H        -3.640098         0.546914         0.218888
 H        -3.452979        -1.636184        -2.575111
 H        -1.876301        -0.859786        -3.235041
 H        -2.484392        -2.014538        -0.406106
 H        -0.174177        -2.089557        -0.230518
 H        -0.006980        -1.087464        -1.840760
 H        -1.129204         1.993072         0.190503
 H         0.299712         2.031215        -0.792384
 H        -2.208975         2.111287        -1.861207
 H        -1.256412         1.067357        -2.725656
