19
Iteration:   897
 O        -3.730342         0.409385        -0.796280
 C        -2.535086         0.023161        -1.463260
 C        -2.548798        -1.142514        -2.515952
 C        -1.925824        -1.298613        -1.007694
 C        -0.409767        -1.337477        -0.750110
 C        -0.125328        -0.073736        -0.067276
 O         0.575312         0.043162         0.944711
 C        -0.670384         1.309444        -0.440799
 C        -1.658938         1.237662        -1.606325
 H        -3.624689         0.308484         0.159661
 H        -3.475247        -1.526593        -2.744940
 H        -1.685421        -1.218857        -3.210798
 H        -2.479543        -1.962011        -0.366256
 H        -0.083045        -2.140414        -0.089788
 H        -0.002073        -1.327932        -1.774490
 H        -1.035741         1.932184         0.397274
 H         0.057785         1.944587        -0.998799
 H        -2.152604         2.203410        -1.719267
 H        -1.129207         1.214133        -2.564814
