19
Iteration:  1404charge 0 multiplicity 1
 O        -3.997328         0.171913        -1.728669
 C        -2.613001         0.130291        -1.367248
 C        -1.804385        -0.781334        -2.227909
 C        -2.069667        -1.251647        -0.820682
 C        -0.918837        -1.368513         0.167628
 C        -0.067374        -0.062226        -0.092888
 O         1.136562        -0.226228        -0.271655
 C        -0.663049         1.206655        -0.036836
 C        -1.978960         1.431580        -1.043794
 H        -4.642015         0.280886        -0.876799
 H        -2.316082        -1.261822        -3.061144
 H        -0.792730        -0.583083        -2.555964
 H        -2.941272        -1.931808        -0.710229
 H        -1.176042        -1.279898         1.234861
 H        -0.059027        -2.035950        -0.073584
 H        -1.043418         1.282040         1.043385
 H        -0.074139         2.056521        -0.350977
 H        -2.717350         2.038708        -0.441707
 H        -1.645120         1.913698        -1.964427
