19
Iteration:  2075charge 0 multiplicity 1
 O        -4.020633         0.278276        -1.399132
 C        -2.648772         0.086731        -1.528139
 C        -2.122224        -1.118635        -2.325579
 C        -2.096061        -1.260454        -0.860995
 C        -0.752869        -1.263406        -0.175172
 C         0.010624        -0.011536        -0.029738
 O         1.247046        -0.095079         0.130737
 C        -0.819261         1.250036        -0.057300
 C        -1.794505         1.377944        -1.225988
 H        -4.279511         0.866999        -2.127070
 H        -2.915924        -1.573369        -2.951198
 H        -1.104666        -0.986954        -2.672950
 H        -2.862551        -1.878060        -0.388454
 H        -0.802750        -1.775459         0.809314
 H         0.005215        -1.945019        -0.608328
 H        -1.257072         1.199825         0.908092
 H        -0.174175         2.150181        -0.102973
 H        -2.716049         1.903137        -0.807328
 H        -1.399037         1.656926        -2.125246
