19
Iteration:  3853
 O        -3.773518         0.258088        -0.675110
 C        -2.615556        -0.015419        -1.479683
 C        -2.644747        -1.096690        -2.404208
 C        -1.783149        -1.295142        -1.104297
 C        -0.334153        -1.152788        -0.969735
 C        -0.066325         0.154999        -0.023557
 O         0.502556        -0.136214         1.056934
 C        -0.715053         1.404780        -0.458352
 C        -1.567990         1.162368        -1.683656
 H        -3.356065         0.656556         0.206445
 H        -3.510185        -1.744937        -2.385511
 H        -2.145511        -1.145973        -3.401653
 H        -2.369782        -1.957517        -0.477461
 H         0.061138        -2.057987        -0.385345
 H         0.174256        -1.298422        -1.945166
 H        -1.396372         1.885488         0.292615
 H        -0.033912         2.232684        -0.691216
 H        -2.075132         1.936031        -2.034609
 H        -0.871458         0.877073        -2.553005
