19
Iteration:  1153charge 0 multiplicity 1
 O        -3.986833         0.421676        -1.499371
 C        -2.559280        -0.003081        -1.390651
 C        -2.220559        -1.043698        -2.419118
 C        -2.211065        -1.353536        -0.846296
 C        -0.732742        -1.363407        -0.269082
 C         0.024110         0.013314        -0.018181
 O         1.228579         0.024977         0.179591
 C        -0.812875         1.259069        -0.003427
 C        -1.728663         1.236409        -1.239240
 H        -4.228586         0.514405        -0.462291
 H        -3.010277        -1.463164        -3.063109
 H        -1.253671        -0.814540        -2.880704
 H        -2.996690        -2.001451        -0.490772
 H        -0.781036        -1.795942         0.757215
 H         0.147213        -2.018991        -0.602450
 H        -1.440176         1.344125         0.979027
 H        -0.257055         2.201320        -0.115173
 H        -2.540574         1.970027        -1.379748
 H        -1.174498         1.261324        -2.194051
