19
Iteration:  3812
 O        -3.796614         0.318095        -0.747487
 C        -2.636754         0.043636        -1.462696
 C        -2.550245        -1.135642        -2.366481
 C        -1.821884        -1.352374        -1.048717
 C        -0.326144        -1.191442        -0.992019
 C        -0.066413        -0.007227        -0.036488
 O         0.504235        -0.008240         1.092277
 C        -0.648348         1.294259        -0.514380
 C        -1.685870         1.230496        -1.654042
 H        -3.484844         0.537225         0.080775
 H        -3.374672        -1.875620        -2.490023
 H        -2.126488        -0.934391        -3.376865
 H        -2.114132        -2.232710        -0.524037
 H         0.165259        -2.040410        -0.528468
 H         0.024956        -0.996163        -2.006485
 H        -1.092072         1.771570         0.383166
 H         0.326247         1.899310        -0.715278
 H        -2.145522         2.315916        -1.506209
 H        -1.258291         1.295665        -2.683544
