19
Iteration:  1323charge 0 multiplicity 1
 O        -3.906128         0.301666        -1.788708
 C        -2.572706         0.042697        -1.421914
 C        -1.860131        -0.920497        -2.306153
 C        -2.116170        -1.349179        -0.688672
 C        -0.905747        -1.339376         0.175549
 C        -0.035185        -0.094382         0.003639
 O         1.130234        -0.106525        -0.423654
 C        -0.786182         1.236173         0.049813
 C        -1.934135         1.390243        -0.963729
 H        -4.266032         0.779758        -0.883631
 H        -2.602110        -1.233730        -3.141762
 H        -0.842772        -0.769094        -2.570533
 H        -2.806539        -2.207376        -0.598222
 H        -1.245287        -1.546021         1.267042
 H        -0.176921        -2.171825         0.011607
 H        -1.348572         1.484348         1.037756
 H        -0.070209         2.126772        -0.151360
 H        -2.673594         2.221286        -0.637654
 H        -1.590528         1.876532        -1.944545
