19
Iteration:  3113charge 0 multiplicity 1
 O        -3.992938         0.232336        -1.719776
 C        -2.631409         0.035591        -1.343613
 C        -1.879130        -0.881836        -2.351582
 C        -2.054571        -1.265319        -0.867468
 C        -0.938456        -1.246555         0.157213
 C         0.045197        -0.041915        -0.084766
 O         1.261188        -0.155149        -0.283461
 C        -0.704393         1.256051         0.002722
 C        -2.048525         1.322704        -0.963482
 H        -4.613284         0.209866        -0.885202
 H        -2.407092        -1.555941        -2.962760
 H        -0.939485        -0.565234        -2.806045
 H        -2.890623        -2.001581        -0.673092
 H        -1.315347        -1.276126         1.232892
 H        -0.407406        -2.234951         0.002594
 H        -1.032576         1.459731         1.077671
 H        -0.039829         2.077053        -0.301221
 H        -2.736527         1.726438        -0.266285
 H        -1.928859         2.055124        -1.780390
