19
Iteration:  1568
 O        -4.077224         0.128770        -1.620213
 C        -2.642629         0.121816        -1.379693
 C        -2.031852        -0.932305        -2.423151
 C        -2.053055        -1.199300        -0.923668
 C        -0.860387        -1.217560        -0.055467
 C         0.024553        -0.106160        -0.037363
 O         1.215387        -0.178450         0.004060
 C        -0.649036         1.286293        -0.011698
 C        -1.901999         1.358943        -1.049198
 H        -4.337963         0.597570        -0.679889
 H        -2.671823        -1.491910        -3.029223
 H        -1.054667        -0.739248        -2.940685
 H        -2.857580        -1.831843        -0.552474
 H        -1.189903        -1.083437         1.049307
 H        -0.157429        -2.074395        -0.095587
 H        -0.906932         1.087028         0.993303
 H         0.043671         2.034920        -0.372011
 H        -2.777616         2.068606        -0.781855
 H        -1.490286         1.755963        -1.981923
