19
Iteration:  1937
 O        -4.032024         0.264141        -1.415539
 C        -2.633059         0.068951        -1.455616
 C        -2.223458        -1.053811        -2.395920
 C        -2.152192        -1.293258        -0.834262
 C        -0.779886        -1.209442        -0.161091
 C         0.080201        -0.003194         0.017228
 O         1.296959        -0.025355         0.084378
 C        -0.872947         1.212576         0.073099
 C        -1.665608         1.278868        -1.337340
 H        -4.151571         0.848469        -2.136255
 H        -3.121439        -1.610857        -2.867880
 H        -1.413355        -0.953545        -3.071688
 H        -2.970836        -1.963335        -0.534229
 H        -0.788490        -1.653502         0.878047
 H        -0.098881        -1.905559        -0.710563
 H        -1.609515         1.030305         0.927498
 H        -0.419248         2.188148         0.449669
 H        -2.267743         2.105121        -1.095636
 H        -0.992367         1.365426        -2.207768
