19
Iteration:  1817charge 0 multiplicity 1
 O        -3.919529         0.167786        -1.247069
 C        -2.646770         0.070658        -1.514508
 C        -2.207940        -0.925920        -2.471963
 C        -2.107567        -1.231601        -0.933744
 C        -0.769839        -1.359129        -0.135756
 C         0.006725        -0.056496         0.061442
 O         1.192347        -0.083815         0.270225
 C        -0.732725         1.277881        -0.212985
 C        -1.796085         1.349491        -1.331345
 H        -4.456224         0.938082        -1.759685
 H        -2.962435        -1.549640        -2.941886
 H        -1.180120        -0.783479        -2.929015
 H        -2.937874        -1.842230        -0.569616
 H        -0.990711        -1.542373         0.939365
 H        -0.065761        -2.108297        -0.551595
 H        -1.244684         1.662393         0.630331
 H         0.024030         2.131225        -0.289479
 H        -2.646455         1.934859        -0.913305
 H        -1.411922         1.587685        -2.305964
