19
Iteration:  2256charge 0 multiplicity 1
 O        -3.915228         0.354159        -1.586904
 C        -2.582725         0.090452        -1.434358
 C        -2.121075        -1.057202        -2.231699
 C        -2.169469        -1.283882        -0.785334
 C        -0.799884        -1.376382        -0.034308
 C         0.004553        -0.027500        -0.087292
 O         1.218640         0.052613        -0.149593
 C        -0.845773         1.178009         0.078249
 C        -1.782203         1.338762        -1.139805
 H        -4.162033        -0.372521        -2.274861
 H        -2.875704        -1.476872        -2.903584
 H        -1.100279        -0.933408        -2.662484
 H        -3.097119        -1.837772        -0.500389
 H        -0.856757        -1.440135         1.046265
 H        -0.144284        -2.120596        -0.526262
 H        -1.498499         0.858464         0.876692
 H        -0.323561         2.070224         0.355822
 H        -2.571331         2.056852        -0.754781
 H        -1.223255         1.629533        -2.064880
