19
Iteration:  3264charge 0 multiplicity 1
 O        -3.964167         0.203935        -1.576724
 C        -2.574519         0.024426        -1.421292
 C        -1.909885        -0.831230        -2.316173
 C        -2.077632        -1.249692        -0.740445
 C        -0.861160        -1.454274         0.077596
 C        -0.058697        -0.121150        -0.063976
 O         1.183544        -0.002399        -0.311312
 C        -0.879283         1.231823         0.000392
 C        -1.849282         1.368278        -1.107645
 H        -4.467540         0.679817        -0.797480
 H        -2.242232        -1.319862        -3.170250
 H        -0.811030        -0.543147        -2.345928
 H        -2.967375        -1.900848        -0.560553
 H        -1.232663        -1.502056         1.084200
 H        -0.219609        -2.286983        -0.190832
 H        -1.454059         1.218946         0.903756
 H        -0.239834         2.085532         0.092941
 H        -2.557725         2.295422        -0.779987
 H        -1.353043         1.702513        -1.989663
