19
Iteration:  1818
 O        -3.922029         0.164799        -1.243536
 C        -2.646921         0.065375        -1.522125
 C        -2.209987        -0.920823        -2.485414
 C        -2.108114        -1.230262        -0.933124
 C        -0.773166        -1.351239        -0.129354
 C         0.018239        -0.061126         0.065971
 O         1.192813        -0.085377         0.272983
 C        -0.723994         1.278115        -0.212737
 C        -1.799210         1.349292        -1.331826
 H        -4.449808         0.916656        -1.795765
 H        -3.013419        -1.561613        -2.902131
 H        -1.207199        -0.773645        -2.904262
 H        -2.927424        -1.868187        -0.578972
 H        -0.996859        -1.540743         0.924136
 H        -0.078442        -2.087760        -0.557506
 H        -1.241981         1.680928         0.601383
 H        -0.017843         2.144347        -0.290463
 H        -2.645210         1.943753        -0.880596
 H        -1.393313         1.593684        -2.290338
