19
Iteration:  4614charge 0 multiplicity 1
 O        -4.123242         0.086885        -1.253827
 C        -2.651507         0.117200        -1.313826
 C        -2.066140        -0.710843        -2.496555
 C        -2.045559        -1.316188        -1.013142
 C        -0.688918        -1.446755        -0.331919
 C         0.022231        -0.053930        -0.086705
 O         0.987174        -0.069032         0.605999
 C        -0.398488         1.274343        -0.723681
 C        -2.018507         1.448669        -0.899010
 H        -4.310542        -0.691093        -0.800288
 H        -2.709047        -1.148460        -3.165685
 H        -1.122591        -0.310426        -2.824070
 H        -2.832321        -2.065401        -0.851675
 H        -0.710037        -1.896778         0.592187
 H        -0.012939        -1.922728        -1.030001
 H         0.092795         2.247539        -0.377995
 H        -0.072188         1.048138        -1.728575
 H        -2.413233         1.883728        -0.025405
 H        -2.145218         2.097582        -1.817545
