19
Iteration:  3418charge 0 multiplicity 1
 O        -3.955092         0.188462        -1.269204
 C        -2.590023         0.037481        -1.437119
 C        -2.292671        -1.033827        -2.467708
 C        -2.095338        -1.334648        -1.019351
 C        -0.769239        -1.290905        -0.313073
 C         0.017386         0.047593        -0.075563
 O         1.217501         0.005399         0.275053
 C        -0.843759         1.304795        -0.015303
 C        -1.675658         1.311572        -1.325051
 H        -4.162024         0.060796        -0.293578
 H        -3.167016        -1.055724        -3.081996
 H        -1.369769        -0.754418        -2.885636
 H        -2.878055        -1.887539        -0.522654
 H        -1.043622        -1.461461         0.729453
 H        -0.070391        -2.124407        -0.472933
 H        -1.529946         1.189262         0.925884
 H        -0.129475         2.177502         0.108208
 H        -2.308889         2.296401        -1.343517
 H        -1.106105         1.230389        -2.217228
