19
Iteration:  1763charge 0 multiplicity 1
 O        -3.983168         0.303286        -1.336976
 C        -2.636845         0.020118        -1.483504
 C        -2.191296        -1.038960        -2.414132
 C        -2.075042        -1.214947        -0.898035
 C        -0.771976        -1.309718        -0.138191
 C         0.064399        -0.043363         0.067113
 O         1.252542        -0.011225         0.085767
 C        -0.926207         1.203273        -0.005856
 C        -1.718456         1.270055        -1.272930
 H        -4.200362         0.988536        -2.101834
 H        -2.880611        -1.370415        -3.094680
 H        -1.352357        -1.100422        -3.043537
 H        -2.837688        -1.715586        -0.314996
 H        -0.946566        -1.643186         0.857497
 H        -0.103295        -2.067092        -0.553498
 H        -1.581647         1.210233         0.826122
 H        -0.360545         2.159814        -0.059154
 H        -2.423418         2.133809        -1.398516
 H        -1.116424         1.370536        -2.140023
