19
Iteration:  2454charge 0 multiplicity 1
 O        -3.965436         0.254146        -1.473522
 C        -2.627195         0.071605        -1.389296
 C        -2.184627        -1.005699        -2.367758
 C        -2.173511        -1.250602        -0.844204
 C        -0.735832        -1.294796        -0.185261
 C         0.101713        -0.035108        -0.103145
 O         1.254372        -0.064490         0.224800
 C        -0.767715         1.270941        -0.110187
 C        -1.904345         1.361306        -1.199667
 H        -4.383961        -0.617237        -1.850544
 H        -2.995731        -1.424854        -3.136972
 H        -1.192090        -0.975036        -2.829550
 H        -2.903193        -2.029697        -0.462722
 H        -0.920154        -1.511392         0.849596
 H        -0.167006        -2.046846        -0.765585
 H        -1.067248         1.564352         0.927093
 H         0.019540         2.121279        -0.255837
 H        -2.595453         2.065205        -0.833328
 H        -1.478098         1.691087        -2.061002
