19
Iteration:  4233charge 0 multiplicity 1
 O        -3.988381         0.155531        -1.485440
 C        -2.551937         0.029380        -1.445685
 C        -2.053423        -0.973714        -2.395080
 C        -2.109024        -1.291943        -0.879489
 C        -0.774535        -1.329419        -0.062204
 C        -0.047656        -0.081574        -0.015717
 O         1.177311         0.030544        -0.193916
 C        -0.815909         1.315090         0.106775
 C        -1.777026         1.348204        -1.113713
 H        -4.305933         0.369208        -0.589851
 H        -2.750410        -1.324594        -3.092570
 H        -1.074666        -0.685489        -2.829124
 H        -2.940070        -1.949054        -0.616616
 H        -1.107894        -1.364437         0.987799
 H        -0.313563        -2.264206        -0.323365
 H        -1.424300         1.429349         1.045840
 H        -0.128706         2.129427         0.103389
 H        -2.584979         2.114924        -0.949288
 H        -1.395876         1.649527        -2.019220
