19
Iteration:  4832
 O        -4.129960         0.052229        -1.152739
 C        -2.667211         0.111925        -1.244359
 C        -2.297916        -0.702792        -2.454119
 C        -1.919556        -1.217117        -1.115601
 C        -0.500401        -1.424876        -0.643663
 C         0.058648        -0.098401        -0.074903
 O         0.736886        -0.060048         0.900654
 C        -0.351796         1.170423        -0.817252
 C        -1.857800         1.390705        -1.000826
 H        -4.534700         0.628984        -0.398385
 H        -3.024370        -1.282927        -3.021432
 H        -1.548575        -0.382346        -3.034913
 H        -2.585058        -1.993828        -0.691256
 H        -0.345373        -2.193417         0.088940
 H         0.163966        -1.608387        -1.612806
 H        -0.001809         2.185535        -0.325762
 H         0.259927         1.301172        -1.750195
 H        -2.164729         1.828585        -0.078351
 H        -2.079243         2.150890        -1.696794
