19
Iteration:  4772
 O        -3.985391         0.218400        -0.879562
 C        -2.665525         0.086305        -1.448879
 C        -2.315095        -0.756660        -2.659421
 C        -1.936042        -1.329198        -1.256495
 C        -0.591901        -1.362081        -0.547376
 C         0.032871         0.016432        -0.046923
 O         0.670959         0.018640         0.917033
 C        -0.325120         1.149291        -0.837431
 C        -1.838161         1.282522        -0.906858
 H        -4.394678        -0.647642        -0.755792
 H        -3.077573        -1.309758        -3.206805
 H        -1.393493        -0.429922        -3.455571
 H        -2.570211        -2.136542        -0.972192
 H        -0.485749        -2.014014         0.409238
 H         0.204870        -1.761627        -1.209714
 H         0.066602         2.024124        -0.414797
 H        -0.095194         0.991780        -1.867053
 H        -2.186998         1.543847         0.149353
 H        -1.949216         2.194325        -1.591542
