19
Iteration:  4615charge 0 multiplicity 1
 O        -4.126001         0.090904        -1.252866
 C        -2.658795         0.115404        -1.318731
 C        -2.061069        -0.709781        -2.490746
 C        -2.037132        -1.312344        -1.009055
 C        -0.688220        -1.439282        -0.340826
 C         0.027324        -0.059171        -0.075455
 O         0.978884        -0.062974         0.601427
 C        -0.390208         1.267788        -0.719343
 C        -2.019384         1.446995        -0.904219
 H        -4.291497        -0.699111        -0.776992
 H        -2.772363        -1.170708        -3.192984
 H        -1.128051        -0.283620        -2.814311
 H        -2.817743        -2.088161        -0.848949
 H        -0.740126        -1.937758         0.603855
 H         0.007986        -1.939494        -1.073365
 H         0.087020         2.214286        -0.394283
 H        -0.076546         1.050818        -1.719766
 H        -2.437781         1.914341        -0.039546
 H        -2.122053         2.055970        -1.792399
