19
Iteration:   899charge 0 multiplicity 1
 O        -3.738816         0.408805        -0.804267
 C        -2.512461         0.019351        -1.478195
 C        -2.548517        -1.135776        -2.500924
 C        -1.931986        -1.295473        -1.016561
 C        -0.417988        -1.337457        -0.743689
 C        -0.088968        -0.068557        -0.061618
 O         0.582225         0.044530         0.947108
 C        -0.683878         1.298180        -0.431062
 C        -1.679453         1.237525        -1.610138
 H        -3.579839         0.253909         0.247964
 H        -3.497076        -1.523858        -2.786559
 H        -1.760624        -1.234095        -3.258002
 H        -2.502772        -1.920380        -0.370613
 H        -0.164998        -2.137151        -0.086193
 H         0.007171        -1.310570        -1.777092
 H        -1.028333         1.948017         0.381586
 H         0.096488         1.933931        -0.973313
 H        -2.189765         2.248853        -1.742962
 H        -1.094812         1.157441        -2.568252
