19
Iteration:  3789charge 0 multiplicity 1
 O        -3.904768         0.268457        -0.811389
 C        -2.551806         0.013118        -1.371947
 C        -2.585397        -1.106189        -2.420408
 C        -1.804726        -1.253707        -1.037976
 C        -0.325332        -1.172352        -0.939421
 C        -0.022453         0.070545        -0.064103
 O         0.521990        -0.155707         1.049373
 C        -0.616496         1.455478        -0.560635
 C        -1.700207         1.119625        -1.566578
 H        -3.923483         0.359032         0.226900
 H        -3.511599        -1.526547        -2.677824
 H        -1.798352        -1.157676        -3.246680
 H        -2.220789        -1.710227        -0.148990
 H         0.169763        -1.997772        -0.357492
 H         0.063557        -1.061596        -1.948591
 H        -0.999371         1.976914         0.358287
 H         0.333948         2.005644        -0.879004
 H        -2.170380         2.110585        -1.801494
 H        -1.127970         0.953583        -2.552203
