19
Iteration:  3111
 O        -3.999079         0.250169        -1.714465
 C        -2.634214         0.021371        -1.345868
 C        -1.869371        -0.872230        -2.371406
 C        -2.031246        -1.266899        -0.856592
 C        -0.931342        -1.241246         0.172916
 C         0.037404        -0.043769        -0.085140
 O         1.267718        -0.168875        -0.280059
 C        -0.724192         1.276043        -0.001055
 C        -2.044906         1.318781        -0.961069
 H        -4.583635         0.176686        -0.877916
 H        -2.464708        -1.603988        -3.006860
 H        -0.960099        -0.613015        -2.801880
 H        -2.891516        -1.983229        -0.684873
 H        -1.266336        -1.335999         1.212614
 H        -0.458850        -2.216596        -0.046046
 H        -1.016201         1.459122         1.032693
 H        -0.065737         2.043771        -0.331324
 H        -2.836789         1.756959        -0.304442
 H        -1.933202         1.986635        -1.725022
