19
Iteration:  2459
 O        -3.951708         0.240301        -1.453620
 C        -2.559546         0.072908        -1.394249
 C        -2.232480        -0.978386        -2.394954
 C        -2.165452        -1.264389        -0.853180
 C        -0.759498        -1.308395        -0.150004
 C         0.073396        -0.064470        -0.155668
 O         1.240252        -0.022770         0.236954
 C        -0.770704         1.282403        -0.093440
 C        -1.894717         1.328344        -1.201781
 H        -4.424038        -0.445339        -1.872959
 H        -2.818910        -1.490556        -3.035344
 H        -1.236536        -0.803638        -2.853499
 H        -2.850863        -1.899281        -0.359716
 H        -0.923334        -1.704909         0.915259
 H        -0.150194        -2.021237        -0.724933
 H        -0.976347         1.529716         0.949499
 H         0.044328         1.907734        -0.287961
 H        -2.672487         2.116239        -0.877240
 H        -1.460391         1.797102        -2.259362
