19
Iteration:  3295
 O        -4.032608         0.282398        -1.613811
 C        -2.605829         0.001123        -1.427532
 C        -2.024970        -1.016687        -2.361105
 C        -2.088356        -1.287145        -0.811916
 C        -0.795596        -1.255455        -0.038607
 C         0.009088        -0.007474        -0.087687
 O         1.196481        -0.006474        -0.194277
 C        -0.807368         1.191811         0.067531
 C        -1.812178         1.307318        -1.040736
 H        -4.382633         0.662350        -0.852682
 H        -2.775035        -1.466402        -2.938610
 H        -0.919250        -0.887084        -2.638012
 H        -2.812942        -2.054518        -0.429622
 H        -1.176839        -1.449420         0.985781
 H        -0.112139        -2.081730        -0.241296
 H        -1.507457         0.991768         0.977106
 H        -0.246358         2.088080         0.280664
 H        -2.493653         2.188867        -0.719858
 H        -1.253597         1.669995        -1.914969
