19
Iteration:  1436charge 0 multiplicity 1
 O        -3.996876         0.223262        -1.571172
 C        -2.596509         0.043514        -1.457117
 C        -1.826627        -0.869703        -2.359229
 C        -2.087840        -1.298590        -0.938974
 C        -0.994328        -1.257462         0.090605
 C        -0.001327        -0.077459        -0.031495
 O         1.200925        -0.194427        -0.201776
 C        -0.669450         1.243207        -0.023092
 C        -2.011148         1.373669        -1.032398
 H        -4.331754         0.590142        -0.830440
 H        -2.470284        -1.375918        -3.102829
 H        -0.811212        -0.639037        -2.633744
 H        -2.808720        -2.122162        -0.755039
 H        -1.383031        -1.027848         1.147359
 H        -0.255159        -2.042934         0.301988
 H        -1.023986         1.594028         1.036468
 H         0.059705         2.064587        -0.239230
 H        -2.799327         1.938509        -0.405756
 H        -1.754834         1.939216        -1.952615
