19
Iteration:  2727
 O        -3.991856         0.329926        -1.233282
 C        -2.613426        -0.000739        -1.460205
 C        -2.175737        -1.039889        -2.564851
 C        -2.108428        -1.362990        -1.064340
 C        -0.797120        -1.250014        -0.210975
 C         0.087355         0.061343        -0.090281
 O         1.190872        -0.082774         0.324620
 C        -0.773597         1.324387        -0.102493
 C        -1.823589         1.294147        -1.260132
 H        -4.369834        -0.044475        -0.367491
 H        -2.773889        -1.798654        -3.031104
 H        -1.184314        -0.866161        -3.062672
 H        -2.832573        -1.928961        -0.505078
 H        -0.976671        -1.472036         0.876649
 H        -0.075041        -2.078828        -0.404895
 H        -1.202717         1.153695         0.883177
 H        -0.154240         2.256435        -0.157495
 H        -2.499703         2.253876        -1.159980
 H        -1.223420         1.538474        -2.289219
