19
Iteration:  2860
 O        -3.980296         0.212725        -1.474766
 C        -2.592208         0.123027        -1.428954
 C        -2.056298        -0.964338        -2.353076
 C        -2.132862        -1.238539        -0.842719
 C        -0.823928        -1.395578        -0.161435
 C        -0.021555        -0.020286        -0.032923
 O         1.185813         0.045997        -0.110151
 C        -0.914875         1.218044         0.155515
 C        -1.670899         1.269539        -1.244455
 H        -4.198325         0.567022        -0.594733
 H        -2.836562        -1.588394        -2.665417
 H        -1.145483        -0.862916        -2.982731
 H        -3.017597        -1.778319        -0.535709
 H        -0.889179        -1.601764         0.929186
 H        -0.211222        -2.085232        -0.782611
 H        -1.693764         1.054433         0.934435
 H        -0.375297         2.013178         0.575397
 H        -2.144013         2.265817        -1.364739
 H        -0.787814         1.255535        -2.068561
