19
Iteration:  3804
 O        -3.826795         0.309419        -0.778420
 C        -2.632706         0.009798        -1.383694
 C        -2.525727        -1.155899        -2.389044
 C        -1.872341        -1.298047        -1.055993
 C        -0.295349        -1.171245        -0.947609
 C        -0.012671        -0.011327        -0.050373
 O         0.481818        -0.044750         1.048691
 C        -0.599732         1.332164        -0.468843
 C        -1.681349         1.257887        -1.652093
 H        -3.583335         0.470042         0.098999
 H        -3.393704        -1.898515        -2.488930
 H        -2.088859        -0.881283        -3.318912
 H        -2.347494        -2.101886        -0.472513
 H         0.090568        -2.112860        -0.674125
 H         0.187706        -0.979480        -1.928775
 H        -0.903133         1.806348         0.444844
 H         0.096871         1.998113        -0.951826
 H        -2.492633         2.088940        -1.835728
 H        -1.190326         1.095602        -2.572519
