19
Iteration:  4301
 O        -3.914677         0.145720        -1.711079
 C        -2.583677         0.080704        -1.310142
 C        -1.817423        -1.001272        -2.208039
 C        -2.125055        -1.213268        -0.757041
 C        -0.865302        -1.414374        -0.013936
 C        -0.047541        -0.062075        -0.042368
 O         1.083361         0.019966        -0.513886
 C        -0.831950         1.236351         0.177077
 C        -1.854352         1.456411        -0.988582
 H        -4.434118         0.348396        -0.927306
 H        -2.459753        -1.652676        -2.931205
 H        -0.865548        -0.673110        -2.616346
 H        -2.888397        -2.028050        -0.661664
 H        -1.183647        -1.492139         1.099867
 H        -0.315512        -2.235639        -0.405101
 H        -1.499491         1.156701         1.102735
 H        -0.117373         2.018090         0.391969
 H        -2.569376         2.201275        -0.690536
 H        -1.421975         1.993603        -1.874199
