19
Iteration:  1794charge 0 multiplicity 1
 O        -4.046909         0.258196        -1.261177
 C        -2.612910         0.019936        -1.422405
 C        -2.013505        -1.048748        -2.383683
 C        -2.100657        -1.278778        -0.894144
 C        -0.814470        -1.367607        -0.184555
 C        -0.065711        -0.083661        -0.146198
 O         1.134535        -0.018353         0.231507
 C        -0.768038         1.260576        -0.155701
 C        -1.726190         1.431505        -1.308753
 H        -4.131247         1.186886        -1.430921
 H        -2.796991        -1.520799        -2.873570
 H        -0.936896        -0.931798        -2.851150
 H        -2.822603        -2.037841        -0.594212
 H        -0.893973        -1.683203         0.899744
 H        -0.192513        -2.071425        -0.782108
 H        -1.326461         1.369861         0.738896
 H        -0.195522         2.233057        -0.098220
 H        -2.389306         2.296859        -1.210002
 H        -1.066857         1.396228        -2.168177
