19
Iteration:   230charge 0 multiplicity 1
 O        -3.959526         0.276356        -1.489343
 C        -2.548488        -0.030657        -1.536982
 C        -1.980126        -1.010163        -2.400169
 C        -2.070299        -1.255458        -0.888171
 C        -1.009522        -1.185935         0.289841
 C        -0.004626        -0.042739        -0.039661
 O         1.193160        -0.109240        -0.269212
 C        -0.739718         1.262721        -0.035238
 C        -1.790912         1.312004        -1.172602
 H        -4.442395        -0.108364        -0.600107
 H        -2.574143        -1.700258        -3.085999
 H        -1.088428        -0.563905        -2.851678
 H        -2.857633        -2.064788        -0.732571
 H        -1.584343        -0.737895         1.125343
 H        -0.590668        -2.147676         0.615918
 H        -1.349188         1.333186         0.925684
 H         0.050858         2.010946         0.011016
 H        -2.639157         1.995547        -0.737451
 H        -1.491926         1.986635        -1.959686
