19
Iteration:  4600charge 0 multiplicity 1
 O        -4.036644         0.106401        -1.281921
 C        -2.655874         0.053366        -1.303409
 C        -2.063883        -0.718238        -2.449169
 C        -2.070601        -1.268755        -1.068404
 C        -0.728944        -1.361916        -0.308715
 C         0.058403        -0.035337        -0.080295
 O         1.027303        -0.110706         0.603063
 C        -0.524224         1.277206        -0.838556
 C        -1.975675         1.402655        -0.872680
 H        -4.414478        -0.745057        -0.861802
 H        -2.811019        -1.036261        -3.144008
 H        -1.057903        -0.590253        -2.844243
 H        -2.777781        -2.039986        -0.809145
 H        -0.895317        -1.778897         0.700611
 H        -0.092070        -2.082880        -0.707340
 H        -0.036823         2.042035        -0.128189
 H         0.009866         1.486719        -1.813146
 H        -2.389523         1.546529         0.148148
 H        -2.424498         2.357143        -1.405430
