19
Iteration:  1067charge 0 multiplicity 1
 O        -3.973527         0.483482        -1.201294
 C        -2.563448         0.020376        -1.491676
 C        -2.374172        -1.089042        -2.430112
 C        -2.011487        -1.361831        -0.995108
 C        -0.602083        -1.381052        -0.381442
 C        -0.079373        -0.047666         0.041805
 O         1.099778         0.029402         0.432974
 C        -0.880753         1.289330        -0.123316
 C        -1.650387         1.243487        -1.434093
 H        -3.903335         0.517526        -0.290847
 H        -3.161068        -1.724631        -2.799581
 H        -1.470624        -0.938062        -3.112753
 H        -2.755723        -2.052715        -0.616414
 H        -0.822074        -1.950736         0.504131
 H         0.199490        -1.678869        -1.028295
 H        -1.376081         1.410932         0.843030
 H        -0.280505         2.157418        -0.277026
 H        -2.146405         2.202081        -1.674705
 H        -0.931530         1.054500        -2.270435
