19
Iteration:  3633charge 0 multiplicity 1
 O        -3.948406         0.432653        -1.089591
 C        -2.623255         0.016061        -1.449385
 C        -2.458891        -1.114832        -2.391951
 C        -1.890814        -1.307163        -0.990518
 C        -0.470839        -1.285873        -0.659716
 C        -0.015988         0.062052        -0.090143
 O         0.948603        -0.002734         0.701158
 C        -0.808761         1.310398        -0.198675
 C        -1.714510         1.132478        -1.500862
 H        -4.065864         0.023846        -0.273791
 H        -3.400118        -1.571881        -2.491473
 H        -1.664456        -1.119742        -3.159221
 H        -2.578870        -1.859183        -0.367482
 H        -0.219421        -2.151917        -0.011716
 H         0.232845        -1.402350        -1.485869
 H        -1.560214         1.278221         0.627106
 H        -0.167340         2.172871        -0.055662
 H        -2.265973         2.025262        -1.455867
 H        -1.086286         1.256722        -2.510533
