19
Iteration:   689
 O        -3.823848         0.299924        -0.975018
 C        -2.586850         0.082397        -1.440595
 C        -2.530131        -1.133378        -2.387311
 C        -1.997348        -1.196235        -0.896961
 C        -0.426659        -1.373745        -0.761774
 C         0.023612        -0.021589        -0.085438
 O         0.695970        -0.022193         0.920315
 C        -0.690123         1.285686        -0.448416
 C        -1.667321         1.322101        -1.625038
 H        -3.931231         0.464925        -0.088493
 H        -3.400625        -1.652085        -2.708250
 H        -1.768742        -1.216407        -3.188835
 H        -2.587408        -1.715464        -0.123351
 H        -0.128893        -2.305162        -0.195645
 H         0.049035        -1.416782        -1.758433
 H        -1.152175         1.482998         0.538627
 H         0.176619         1.996191        -0.444181
 H        -2.225289         2.306953        -1.589349
 H        -1.063799         1.309781        -2.583179
