19
Iteration:  2068
 O        -4.030866         0.301802        -1.390308
 C        -2.636622         0.014797        -1.447056
 C        -2.111913        -1.073627        -2.312700
 C        -2.114929        -1.276328        -0.916047
 C        -0.745762        -1.244793        -0.166769
 C         0.021882        -0.003584        -0.096019
 O         1.184677        -0.067502         0.118663
 C        -0.826003         1.250768        -0.030782
 C        -1.770561         1.270577        -1.219762
 H        -4.058408         1.005750        -2.185367
 H        -2.796398        -1.628833        -2.859069
 H        -1.081459        -0.952420        -2.794990
 H        -2.804858        -1.918102        -0.407330
 H        -0.935591        -1.502911         0.880012
 H         0.011867        -1.918762        -0.596804
 H        -1.379993         1.149348         0.953033
 H        -0.117209         2.090681         0.023334
 H        -2.370731         2.212682        -0.951002
 H        -1.287936         1.733727        -2.240528
