19
Iteration:   963charge 0 multiplicity 1
 O        -3.903059         0.412587        -1.074119
 C        -2.592815        -0.004876        -1.410700
 C        -2.557903        -1.154541        -2.422804
 C        -2.013549        -1.280802        -0.953573
 C        -0.495790        -1.271616        -0.823845
 C        -0.005430         0.041356         0.042915
 O         0.872839         0.018691         0.816682
 C        -0.796717         1.322750        -0.288261
 C        -1.556785         1.113577        -1.499917
 H        -3.664698         0.918450        -0.154835
 H        -3.466397        -1.680597        -2.598803
 H        -1.705152        -1.026695        -3.023916
 H        -2.591976        -1.972740        -0.389420
 H        -0.228981        -2.240923        -0.425359
 H         0.190166        -1.235405        -1.698485
 H        -1.494992         1.669084         0.507208
 H         0.118423         1.962051        -0.317149
 H        -2.059143         1.995652        -1.923073
 H        -0.961966         0.804721        -2.347079
