19
Iteration:   279
 O        -4.057360         0.180583        -1.660594
 C        -2.557744         0.068365        -1.404704
 C        -1.891167        -0.993900        -2.202794
 C        -2.195883        -1.159889        -0.695970
 C        -0.901639        -1.311827         0.018471
 C        -0.012393        -0.028779        -0.063937
 O         1.186154        -0.153961        -0.231552
 C        -0.740364         1.316461         0.018337
 C        -1.794069         1.393435        -1.214301
 H        -4.423081        -0.174748        -0.941188
 H        -2.654275        -1.472281        -2.767460
 H        -0.804465        -1.040274        -2.433487
 H        -3.016336        -1.710380        -0.331601
 H        -0.928422        -1.444175         1.116228
 H        -0.498452        -2.226431        -0.481121
 H        -1.335830         1.395122         0.887780
 H        -0.017910         2.177229         0.018646
 H        -2.492914         2.175062        -0.853985
 H        -1.332120         1.764967        -2.219864
