19
Iteration:  3319
 O        -3.971256         0.198010        -1.604518
 C        -2.574395         0.085560        -1.512688
 C        -2.156699        -1.092198        -2.361011
 C        -2.082628        -1.184902        -0.852991
 C        -0.774052        -1.359117        -0.091769
 C         0.062896        -0.084739         0.053359
 O         1.297078        -0.031964        -0.141791
 C        -0.837239         1.346945         0.154912
 C        -1.902890         1.367430        -1.103789
 H        -4.508180         0.359769        -0.741816
 H        -3.172825        -1.387957        -2.663664
 H        -1.309091        -1.068072        -2.977680
 H        -2.882928        -1.909475        -0.582196
 H        -0.908949        -1.792366         0.898130
 H        -0.127537        -2.084000        -0.597324
 H        -1.443879         1.339990         1.071865
 H        -0.242741         2.262379         0.179514
 H        -2.682786         2.274624        -0.956951
 H        -1.305815         1.677518        -1.936080
