19
Iteration:  4122
 O        -4.046468         0.184391        -1.148048
 C        -2.601453         0.104279        -1.440511
 C        -2.230600        -0.986696        -2.482224
 C        -2.064676        -1.246294        -0.935870
 C        -0.630614        -1.370210        -0.383241
 C        -0.037347         0.006419        -0.050575
 O         1.157647        -0.005484         0.403025
 C        -0.838981         1.307812        -0.145158
 C        -1.717825         1.291105        -1.419894
 H        -4.016519         0.587481        -0.262823
 H        -3.035177        -1.651735        -2.906654
 H        -1.402406        -1.098937        -3.114755
 H        -2.781580        -1.969291        -0.542233
 H        -0.416792        -2.124191         0.420879
 H        -0.062177        -1.739002        -1.269126
 H        -1.520624         1.247926         0.759613
 H        -0.217409         2.246644        -0.062880
 H        -2.397730         2.238265        -1.437282
 H        -1.037281         1.404152        -2.158733
