19
Iteration:  1816charge 0 multiplicity 1
 O        -3.920895         0.172654        -1.251016
 C        -2.643150         0.076406        -1.505751
 C        -2.204009        -0.932606        -2.457752
 C        -2.106489        -1.233003        -0.934420
 C        -0.767051        -1.366777        -0.142733
 C        -0.006539        -0.051069         0.054936
 O         1.192682        -0.082077         0.267732
 C        -0.740981         1.278439        -0.213809
 C        -1.793812         1.348704        -1.329874
 H        -4.444093         0.938811        -1.709731
 H        -2.906971        -1.536443        -2.989143
 H        -1.164101        -0.796251        -2.955253
 H        -2.947258        -1.815855        -0.560003
 H        -0.986019        -1.550900         0.952138
 H        -0.055314        -2.129148        -0.541812
 H        -1.255170         1.640101         0.678185
 H         0.065087         2.105439        -0.292498
 H        -2.639140         1.934784        -0.955419
 H        -1.429478         1.589904        -2.327756
