19
Iteration:  4143
 O        -4.005264         0.200375        -1.271992
 C        -2.622343         0.050182        -1.416827
 C        -2.301993        -1.046601        -2.450044
 C        -2.017169        -1.304217        -0.998425
 C        -0.661776        -1.254246        -0.398776
 C        -0.017106         0.006822         0.009393
 O         1.194765        -0.030253         0.321537
 C        -0.790491         1.301518        -0.096194
 C        -1.792037         1.280352        -1.290737
 H        -4.153408         0.658985        -0.457240
 H        -3.134569        -1.619455        -2.992851
 H        -1.567493        -0.634604        -3.068895
 H        -2.663112        -1.951687        -0.411449
 H        -0.714475        -1.617798         0.643875
 H         0.144436        -1.956791        -0.764699
 H        -1.393348         1.525164         0.809084
 H        -0.000163         2.126289        -0.193018
 H        -2.503368         2.197146        -1.339853
 H        -1.175249         1.418696        -2.110283
