19
Iteration:  1698
 O        -3.924323         0.512865        -1.386529
 C        -2.550855        -0.016143        -1.466880
 C        -2.050063        -1.044142        -2.333088
 C        -2.109253        -1.265857        -0.822555
 C        -0.748643        -1.416503        -0.071835
 C        -0.071430        -0.035889         0.017584
 O         1.142589         0.042385        -0.109038
 C        -0.988823         1.203388         0.048325
 C        -1.693384         1.240373        -1.280584
 H        -4.535109         0.064158        -1.893788
 H        -2.584054        -1.709469        -3.011005
 H        -1.114971        -0.663373        -2.824926
 H        -2.858869        -1.916602        -0.386938
 H        -0.833945        -1.963431         0.849183
 H        -0.141223        -2.007533        -0.767943
 H        -1.779547         1.058246         0.905559
 H        -0.325674         2.015296         0.502761
 H        -2.349559         2.185577        -1.232188
 H        -0.980780         1.361867        -2.102731
