19
Iteration:  3224
 O        -3.953678         0.131895        -1.663428
 C        -2.562579         0.075113        -1.414560
 C        -1.917395        -0.957657        -2.377371
 C        -2.141313        -1.265805        -0.919416
 C        -0.871846        -1.259119         0.155084
 C        -0.018213        -0.021542        -0.065691
 O         1.162638        -0.163332        -0.411948
 C        -0.773341         1.373357         0.164003
 C        -1.870703         1.386985        -0.928405
 H        -4.295405        -0.085119        -0.847838
 H        -2.683290        -1.401572        -3.091141
 H        -0.929984        -0.680649        -2.590856
 H        -2.844172        -1.979583        -0.526836
 H        -1.298397        -1.071649         1.184922
 H        -0.462710        -2.294412         0.216348
 H        -1.312852         1.178441         1.129204
 H        -0.176558         2.345867         0.227774
 H        -2.639503         2.051353        -0.808141
 H        -1.393087         1.737384        -1.880201
