19
Iteration:  1327charge 0 multiplicity 1
 O        -3.898118         0.334326        -1.785018
 C        -2.582968         0.028188        -1.427101
 C        -1.871276        -0.949575        -2.295080
 C        -2.084665        -1.323662        -0.716055
 C        -0.892110        -1.361291         0.204479
 C        -0.053937        -0.080701        -0.023449
 O         1.134839        -0.112545        -0.416413
 C        -0.772926         1.265913         0.057528
 C        -1.968294         1.377811        -0.934178
 H        -4.196922         0.726520        -1.025820
 H        -2.567179        -1.243076        -3.019949
 H        -0.825131        -0.802324        -2.634541
 H        -2.792693        -2.115507        -0.659726
 H        -1.301958        -1.432813         1.205394
 H        -0.189757        -2.137126        -0.065331
 H        -1.318825         1.366106         0.970159
 H         0.020264         1.976849        -0.114699
 H        -2.759158         2.139643        -0.756367
 H        -1.701749         1.766736        -1.893787
