19
Iteration:  3587
 O        -4.007082         0.247547        -1.146003
 C        -2.602262         0.010312        -1.523893
 C        -2.449719        -1.099435        -2.450619
 C        -2.015293        -1.238232        -0.984635
 C        -0.567126        -1.196944        -0.559734
 C        -0.005116         0.005513         0.143131
 O         1.112135         0.007503         0.548711
 C        -0.791806         1.241880        -0.168208
 C        -1.655796         1.223950        -1.465615
 H        -4.056190         0.356145        -0.159320
 H        -3.450036        -1.551236        -2.597837
 H        -1.758758        -0.941391        -3.310231
 H        -2.741481        -1.825394        -0.413283
 H        -0.360678        -1.925462         0.187411
 H         0.166979        -1.436886        -1.328220
 H        -1.604815         1.505785         0.549127
 H        -0.234324         2.144101        -0.302542
 H        -2.289049         2.055055        -1.460844
 H        -0.871770         1.451063        -2.270791
