19
Iteration:  4500
 O        -4.032419        -0.028990        -1.515925
 C        -2.639223         0.103364        -1.339049
 C        -1.875641        -0.688793        -2.419531
 C        -2.128539        -1.217827        -0.913794
 C        -0.910149        -1.321911        -0.106601
 C         0.062721        -0.058230        -0.119738
 O         1.191153        -0.203389         0.164802
 C        -0.592474         1.385683        -0.502372
 C        -2.064107         1.342918        -0.733090
 H        -4.378805         0.489531        -0.814337
 H        -2.587951        -1.229774        -3.181027
 H        -0.808865        -0.456900        -2.585175
 H        -2.717641        -2.143205        -0.877444
 H        -1.084326        -1.478370         0.925031
 H        -0.323124        -2.111268        -0.445278
 H        -0.321660         2.179687         0.185321
 H        -0.059311         1.623716        -1.497560
 H        -2.645190         1.423343         0.189028
 H        -2.406873         2.144414        -1.470589
