19
Iteration:  4898charge 0 multiplicity 1
 O        -4.034226         0.124688        -1.081162
 C        -2.655478         0.064371        -1.337259
 C        -2.202058        -0.630576        -2.520746
 C        -1.999713        -1.315297        -1.170963
 C        -0.649796        -1.428162        -0.458991
 C         0.090614        -0.075905        -0.205428
 O         0.841417         0.026918         0.836916
 C        -0.419662         1.191539        -0.870260
 C        -1.917020         1.260124        -0.792713
 H        -4.307699         0.815078        -1.624804
 H        -2.828383        -1.120662        -3.177007
 H        -1.333088        -0.246594        -3.015704
 H        -2.709382        -2.096054        -1.007307
 H        -0.776211        -1.891315         0.492751
 H        -0.013633        -2.180711        -1.156433
 H        -0.037130         2.093278        -0.199850
 H         0.019142         1.144183        -1.886891
 H        -2.208561         1.412587         0.287920
 H        -2.257146         2.125384        -1.290906
