19
Iteration:  4861
 O        -3.992921         0.165649        -1.106833
 C        -2.628851         0.067380        -1.333673
 C        -2.275549        -0.804566        -2.531403
 C        -2.001234        -1.285957        -1.185367
 C        -0.601290        -1.309740        -0.624732
 C         0.039320        -0.046595        -0.091373
 O         0.822437        -0.025364         0.916332
 C        -0.402113         1.176607        -0.782931
 C        -1.920806         1.302185        -0.865440
 H        -4.305881         1.013533        -0.804565
 H        -3.075254        -1.379358        -3.131767
 H        -1.347112        -0.640559        -3.166354
 H        -2.624897        -2.147640        -0.810220
 H        -0.420919        -2.143307         0.119476
 H         0.047979        -1.547755        -1.422582
 H         0.050162         2.124454        -0.715795
 H        -0.071313         0.971801        -1.804075
 H        -2.301254         1.289637         0.245634
 H        -2.312213         2.298192        -1.243307
