19
Iteration:  2978charge 0 multiplicity 1
 O        -3.976305         0.195182        -1.637377
 C        -2.575874         0.059791        -1.421536
 C        -2.069830        -0.935340        -2.318745
 C        -2.124873        -1.318766        -0.848654
 C        -0.880006        -1.397101        -0.021098
 C         0.076122        -0.074499        -0.164228
 O         1.257711        -0.008825        -0.036694
 C        -0.756240         1.260233        -0.073296
 C        -1.908286         1.433364        -0.985304
 H        -4.537502         0.435994        -0.784832
 H        -2.775693        -1.364366        -2.906271
 H        -0.981960        -0.924067        -2.747363
 H        -2.952282        -1.951941        -0.636440
 H        -1.053488        -1.640684         1.066551
 H        -0.302251        -2.167596        -0.544161
 H        -0.996330         1.326535         1.044684
 H        -0.152336         2.198194        -0.140936
 H        -2.748412         2.033268        -0.550681
 H        -1.689503         2.015934        -1.836799
