19
Iteration:    10charge 0 multiplicity 1
 O        -4.005405         0.206427        -1.569654
 C        -2.548707         0.046927        -1.421170
 C        -2.048879        -1.012747        -2.387323
 C        -2.162494        -1.254957        -0.834540
 C        -0.797573        -1.297929         0.070948
 C        -0.053290         0.025263        -0.045329
 O         1.189302        -0.074464        -0.118422
 C        -0.776228         1.323819        -0.016947
 C        -1.768717         1.296015        -1.204188
 H        -4.318288         0.254784        -0.642382
 H        -2.975195        -1.355382        -2.829078
 H        -1.128119        -1.206934        -2.786367
 H        -3.059026        -1.770544        -0.597884
 H        -1.218329        -1.212175         1.120091
 H        -0.202879        -2.183025         0.085410
 H        -1.277278         1.441724         0.978756
 H         0.094860         2.005393        -0.143698
 H        -2.418385         2.175899        -0.926095
 H        -1.129518         1.498711        -2.004907
