19
Iteration:  1672
 O        -3.974659         0.440941        -1.458875
 C        -2.560788         0.093714        -1.507124
 C        -2.085719        -1.022071        -2.319798
 C        -2.059952        -1.304110        -0.909056
 C        -0.825018        -1.405744        -0.021049
 C        -0.038577        -0.051951        -0.051270
 O         1.213174         0.065185        -0.104924
 C        -0.935156         1.181273         0.137648
 C        -1.724593         1.301773        -1.231667
 H        -4.484032        -0.355220        -1.550947
 H        -2.800523        -1.632841        -2.866627
 H        -1.274603        -1.105505        -3.048524
 H        -2.764987        -1.989980        -0.419473
 H        -1.161324        -1.563424         1.008158
 H        -0.263335        -2.287732        -0.345917
 H        -1.437949         1.048893         1.052974
 H        -0.221324         1.946643         0.417821
 H        -2.263728         2.201535        -1.218845
 H        -0.946577         1.420972        -1.987611
