19
Iteration:  4082charge 0 multiplicity 1
 O        -3.982658         0.407197        -1.134325
 C        -2.622179        -0.038909        -1.532162
 C        -2.461195        -1.103891        -2.489176
 C        -1.977975        -1.303863        -0.993518
 C        -0.517026        -1.345349        -0.520378
 C        -0.004504         0.002485        -0.043377
 O         1.137130         0.096700         0.545376
 C        -0.891250         1.277236        -0.099144
 C        -1.644805         1.246487        -1.373546
 H        -4.109398         0.144696        -0.173736
 H        -3.357239        -1.710323        -2.597340
 H        -1.861962        -0.974063        -3.468266
 H        -2.806802        -1.857001        -0.553677
 H        -0.371272        -1.991254         0.414130
 H         0.154002        -1.584818        -1.336283
 H        -1.571670         1.168800         0.764678
 H        -0.340891         2.143053         0.070580
 H        -2.387394         2.002431        -1.522691
 H        -0.952813         1.076520        -2.339144
