19
Iteration:  3629
 O        -3.981784         0.415953        -1.097897
 C        -2.613763         0.036955        -1.450499
 C        -2.429748        -1.110088        -2.400956
 C        -1.929629        -1.352054        -0.958907
 C        -0.498032        -1.258677        -0.694894
 C        -0.007999         0.071340        -0.049161
 O         0.954272         0.017351         0.683571
 C        -0.809605         1.274725        -0.218565
 C        -1.648036         1.166132        -1.501725
 H        -4.111443        -0.078015        -0.183815
 H        -3.382903        -1.646272        -2.540161
 H        -1.658743        -1.025407        -3.221408
 H        -2.560254        -1.878184        -0.229772
 H        -0.274430        -1.972315         0.067721
 H         0.120777        -1.554308        -1.599343
 H        -1.492107         1.260104         0.696127
 H        -0.100199         2.083314        -0.002279
 H        -2.298258         2.050302        -1.407555
 H        -1.129361         1.177596        -2.430992
