19
Iteration:  1321
 O        -3.915100         0.285450        -1.780870
 C        -2.562829         0.052308        -1.411074
 C        -1.863891        -0.905832        -2.306403
 C        -2.138083        -1.356008        -0.692081
 C        -0.908452        -1.329948         0.166816
 C        -0.022881        -0.097275         0.013370
 O         1.122278        -0.104893        -0.424074
 C        -0.794573         1.229899         0.049679
 C        -1.915130         1.399045        -0.989590
 H        -4.278356         0.735513        -0.958392
 H        -2.556758        -1.251165        -3.146291
 H        -0.808612        -0.734898        -2.554863
 H        -2.829225        -2.243864        -0.552308
 H        -1.183097        -1.568461         1.243209
 H        -0.193935        -2.201459         0.041136
 H        -1.293705         1.510387         1.044415
 H        -0.163024         2.140674        -0.139609
 H        -2.589600         2.175396        -0.557426
 H        -1.510178         1.914152        -1.936601
