19
Iteration:  4071charge 0 multiplicity 1
 O        -3.927653         0.414086        -1.141835
 C        -2.657456        -0.010956        -1.480373
 C        -2.549010        -1.176126        -2.492233
 C        -1.984075        -1.354042        -1.029592
 C        -0.494573        -1.276381        -0.542587
 C         0.035793         0.094312         0.049345
 O         1.097395         0.060106         0.533099
 C        -0.871508         1.289878        -0.031474
 C        -1.677482         1.187031        -1.473698
 H        -4.072208         0.147093        -0.281976
 H        -3.393134        -1.744422        -2.886538
 H        -1.909169        -0.772385        -3.353191
 H        -2.534764        -2.040158        -0.360794
 H        -0.337312        -2.162866         0.166654
 H         0.141397        -1.624055        -1.346737
 H        -1.609285         1.233543         0.782948
 H        -0.276763         2.136867         0.101798
 H        -2.117116         2.165700        -1.585057
 H        -0.793614         1.317658        -2.268758
