19
Iteration:  2894
 O        -3.931903         0.313555        -1.407228
 C        -2.559700         0.008742        -1.497577
 C        -2.040317        -0.988302        -2.470494
 C        -2.025392        -1.286596        -0.919764
 C        -0.821631        -1.355650        -0.000385
 C        -0.101480        -0.032175        -0.031538
 O         1.146763        -0.010919        -0.137255
 C        -0.852712         1.248049         0.120994
 C        -1.812609         1.302160        -1.172725
 H        -4.084079         0.602445        -0.549538
 H        -2.766561        -1.592745        -2.840491
 H        -1.222711        -0.738095        -3.226077
 H        -2.911553        -1.931357        -0.746247
 H        -0.963160        -1.410145         1.092845
 H        -0.065646        -2.159744        -0.089476
 H        -1.592670         1.082895         0.903479
 H        -0.213534         2.059735         0.190259
 H        -2.528717         2.110028        -1.101358
 H        -1.084453         1.658940        -2.074716
