19
Iteration:  4846
 O        -4.074620         0.085710        -1.135063
 C        -2.644180         0.071847        -1.364500
 C        -2.305473        -0.724364        -2.560818
 C        -2.022505        -1.268184        -1.032549
 C        -0.485476        -1.346380        -0.651152
 C         0.076196        -0.065249        -0.023257
 O         0.799346        -0.058469         0.932828
 C        -0.356999         1.209142        -0.882015
 C        -1.938211         1.321235        -0.875691
 H        -4.168637         0.893892        -0.686021
 H        -3.207926        -0.971043        -3.042847
 H        -1.388643        -0.424453        -3.179647
 H        -2.703819        -1.976373        -0.642176
 H        -0.338480        -2.164668         0.043367
 H         0.106945        -1.632903        -1.532034
 H         0.065852         1.983556        -0.255198
 H         0.041932         1.024459        -1.969270
 H        -2.308447         1.614468         0.106677
 H        -2.153011         2.109946        -1.687305
