19
Iteration:  1838charge 0 multiplicity 1
 O        -4.107600         0.190050        -1.234373
 C        -2.661106         0.065323        -1.433502
 C        -2.198035        -1.022440        -2.534849
 C        -2.031360        -1.223969        -1.036595
 C        -0.832304        -1.264369        -0.116046
 C         0.108713         0.007639        -0.022879
 O         1.232485        -0.115459         0.352804
 C        -0.672048         1.283736        -0.202663
 C        -1.767148         1.367754        -1.259481
 H        -4.576387         0.295411        -2.118267
 H        -3.023132        -1.537927        -3.027850
 H        -1.451136        -0.792792        -3.373540
 H        -2.868953        -1.831416        -0.670009
 H        -1.183069        -1.496673         0.953098
 H        -0.127938        -2.068559        -0.438806
 H        -0.956492         1.399091         0.873156
 H         0.192080         2.050418        -0.277833
 H        -2.613390         2.057176        -1.052998
 H        -1.309612         1.444334        -2.269891
