19
Iteration:   839
 O        -3.901332         0.292199        -0.851039
 C        -2.643588         0.053478        -1.447078
 C        -2.723279        -1.181488        -2.329090
 C        -1.790872        -1.188771        -1.079260
 C        -0.337964        -1.105458        -0.966937
 C        -0.054932        -0.035200         0.018655
 O         0.499303        -0.078612         1.134183
 C        -0.485377         1.303158        -0.439833
 C        -1.538515         1.172060        -1.750682
 H        -3.872371         0.741952         0.035539
 H        -3.748759        -1.738094        -2.223881
 H        -2.311899        -1.200720        -3.362215
 H        -2.136193        -1.754667        -0.163099
 H         0.210200        -2.049815        -0.678238
 H         0.154179        -1.024262        -1.924133
 H        -0.919575         1.949249         0.367604
 H         0.347513         1.766382        -0.918557
 H        -1.956854         2.124409        -1.842503
 H        -1.025342         0.832608        -2.639373
