19
Iteration:   367
 O        -3.981738         0.210088        -1.403014
 C        -2.579623         0.107998        -1.375084
 C        -1.978329        -1.063816        -2.268571
 C        -2.121059        -1.244067        -0.819539
 C        -0.916376        -1.318650         0.013461
 C        -0.062574        -0.010014        -0.017318
 O         1.161497        -0.038099        -0.137248
 C        -0.842495         1.257834        -0.058936
 C        -1.669998         1.319404        -1.307063
 H        -4.283125         1.214822        -1.566063
 H        -2.814327        -1.543728        -2.856248
 H        -1.124230        -1.082266        -2.882820
 H        -2.992795        -1.899418        -0.614206
 H        -1.103491        -1.556440         1.071781
 H        -0.291113        -2.150772        -0.380591
 H        -1.543050         1.273699         0.736786
 H        -0.099649         2.059620        -0.011126
 H        -2.159863         2.291152        -1.461971
 H        -0.981286         1.332340        -2.193522
