19
Iteration:  2505
 O        -4.047654         0.257815        -1.199844
 C        -2.642170        -0.009336        -1.489272
 C        -2.088725        -0.966418        -2.461984
 C        -2.057019        -1.252316        -0.919571
 C        -0.759782        -1.314312        -0.127615
 C         0.020992         0.017895        -0.038874
 O         1.240101        -0.106637         0.212394
 C        -0.812435         1.315897        -0.128914
 C        -1.835023         1.249615        -1.340898
 H        -4.393058         0.748114        -2.022674
 H        -2.561916        -1.692998        -3.154916
 H        -1.295403        -0.535867        -2.970978
 H        -2.934609        -1.830517        -0.539183
 H        -0.984159        -1.446338         0.960670
 H        -0.165102        -2.085569        -0.590508
 H        -1.386612         1.259140         0.814285
 H        -0.304667         2.244454         0.026805
 H        -2.497382         2.209028        -1.270000
 H        -1.027232         1.491230        -2.154123
