19
Iteration:  2341
 O        -3.989824         0.383867        -1.370057
 C        -2.530313         0.035467        -1.492383
 C        -1.933683        -1.001517        -2.416496
 C        -2.069734        -1.307912        -0.870340
 C        -0.893466        -1.315304         0.086061
 C        -0.044739        -0.002172         0.035439
 O         1.124329        -0.029652        -0.256879
 C        -0.910823         1.203262         0.077751
 C        -1.700107         1.317921        -1.240567
 H        -4.587523        -0.325074        -1.351790
 H        -2.504046        -1.653181        -3.016615
 H        -1.000454        -0.708452        -2.928241
 H        -2.722840        -2.146598        -0.605824
 H        -1.120265        -1.437951         1.143647
 H        -0.205783        -2.126665        -0.095955
 H        -1.755812         1.017854         0.853401
 H        -0.372286         2.105020         0.363392
 H        -2.394053         2.193275        -1.295132
 H        -1.055228         1.545584        -1.998188
