19
Iteration:  3375
 O        -4.106284         0.316386        -1.338529
 C        -2.671202         0.066776        -1.407940
 C        -2.105252        -0.989078        -2.437026
 C        -2.054454        -1.325681        -0.999069
 C        -0.670787        -1.368429        -0.111273
 C         0.046406        -0.058363         0.017191
 O         1.265577         0.010154         0.126819
 C        -0.871864         1.226536        -0.062475
 C        -1.824101         1.295195        -1.321704
 H        -4.372391         0.796648        -0.587261
 H        -2.655865        -1.621684        -3.165826
 H        -1.201708        -0.678959        -2.884383
 H        -2.850583        -1.966792        -0.643079
 H        -0.797069        -1.786099         0.858111
 H         0.089490        -2.019103        -0.568238
 H        -1.629272         1.235909         0.733889
 H        -0.206281         2.133130        -0.051555
 H        -2.508494         2.237894        -1.108120
 H        -1.164663         1.558709        -2.126826
