19
Iteration:  1843charge 0 multiplicity 1
 O        -4.115597         0.206178        -1.245972
 C        -2.727948         0.074116        -1.428264
 C        -2.184008        -1.031922        -2.513729
 C        -2.031585        -1.242343        -1.083748
 C        -0.793435        -1.275970        -0.131572
 C         0.100902        -0.009931        -0.061853
 O         1.222331        -0.113514         0.368800
 C        -0.628535         1.285433        -0.185630
 C        -1.754332         1.372137        -1.248521
 H        -4.638273         0.140287        -2.114340
 H        -3.072945        -1.593186        -2.894332
 H        -1.388124        -0.686540        -3.118871
 H        -2.850977        -1.831325        -0.657898
 H        -1.151704        -1.244782         0.882508
 H        -0.141547        -2.111372        -0.361235
 H        -1.005978         1.545338         0.813694
 H         0.048132         2.110891        -0.206221
 H        -2.573894         2.067139        -1.036188
 H        -1.263891         1.338037        -2.216201
