19
Iteration:  2961charge 0 multiplicity 1
 O        -4.032610         0.163671        -1.637263
 C        -2.629235         0.141512        -1.389768
 C        -1.993748        -0.979926        -2.342092
 C        -2.148298        -1.202523        -0.815524
 C        -0.716050        -1.305845        -0.110816
 C         0.070318        -0.044076        -0.037147
 O         1.244556        -0.174280        -0.073775
 C        -0.758140         1.270510         0.014928
 C        -1.987057         1.418831        -1.099345
 H        -4.461644         0.175821        -0.680747
 H        -2.719549        -1.502460        -3.086486
 H        -1.071126        -0.744313        -2.757020
 H        -2.961483        -1.861409        -0.380159
 H        -0.985332        -1.438557         0.940255
 H        -0.031509        -2.141682        -0.366917
 H        -1.354456         1.186700         0.928972
 H        -0.015246         2.041203         0.078044
 H        -2.723459         2.113352        -0.686030
 H        -1.678282         2.032246        -2.072060
