19
Iteration:  1878charge 0 multiplicity 1
 O        -4.002912         0.307184        -1.281121
 C        -2.648844         0.047982        -1.387406
 C        -2.131190        -0.948677        -2.412389
 C        -2.108736        -1.241992        -0.969040
 C        -0.755127        -1.354254        -0.130607
 C         0.055080        -0.076988        -0.024817
 O         1.190084        -0.065228         0.298971
 C        -0.708540         1.287403        -0.226812
 C        -1.872348         1.281006        -1.287381
 H        -4.417035        -0.037408        -2.108379
 H        -2.864429        -1.389641        -3.004299
 H        -1.200873        -0.688345        -3.010842
 H        -2.933575        -1.837171        -0.606687
 H        -0.781982        -1.928105         0.781597
 H        -0.066853        -1.959222        -0.724091
 H        -1.387109         1.310677         0.644742
 H        -0.079706         2.123509        -0.445248
 H        -2.326179         2.208990        -1.106328
 H        -1.461788         1.671071        -2.223530
