19
Iteration:  1132charge 0 multiplicity 1
 O        -4.029525         0.360028        -1.407208
 C        -2.656504         0.091860        -1.453748
 C        -2.259219        -1.052466        -2.374033
 C        -2.022027        -1.313023        -0.950315
 C        -0.743773        -1.355072        -0.269561
 C        -0.043305         0.038785         0.043789
 O         1.187254        -0.011388         0.228162
 C        -0.791278         1.271502        -0.054480
 C        -1.657109         1.219127        -1.296738
 H        -4.285802         0.505750        -0.427006
 H        -3.123638        -1.674769        -2.670619
 H        -1.426250        -0.784763        -3.011680
 H        -2.717283        -2.046246        -0.586535
 H        -0.907006        -1.962935         0.620500
 H         0.105117        -1.856555        -0.764332
 H        -1.516744         1.381425         0.824894
 H        -0.022402         2.036007         0.016195
 H        -2.200263         2.141863        -1.541604
 H        -0.916053         1.158495        -2.130905
