19
Iteration:  4834
 O        -4.133089         0.053846        -1.151617
 C        -2.653615         0.104820        -1.257550
 C        -2.309995        -0.704450        -2.463815
 C        -1.932027        -1.218743        -1.105799
 C        -0.491795        -1.420696        -0.640368
 C         0.043348        -0.101700        -0.088880
 O         0.753271        -0.059464         0.916551
 C        -0.356009         1.176826        -0.829492
 C        -1.860606         1.375988        -0.970516
 H        -4.489026         0.656939        -0.462997
 H        -3.023102        -1.246813        -3.028979
 H        -1.487314        -0.359568        -3.088172
 H        -2.570221        -1.951257        -0.667305
 H        -0.336616        -2.211118         0.051105
 H         0.126530        -1.607675        -1.568687
 H        -0.061511         2.172523        -0.407262
 H         0.343190         1.318244        -1.750605
 H        -2.210442         1.846890        -0.073107
 H        -2.067934         2.193499        -1.727229
