19
Iteration:  1703
 O        -3.870697         0.488906        -1.369318
 C        -2.582533         0.041564        -1.466189
 C        -2.038643        -1.033445        -2.375529
 C        -2.088471        -1.278479        -0.788751
 C        -0.808237        -1.411591        -0.096334
 C        -0.042412        -0.023418        -0.004148
 O         1.140777         0.047421        -0.094268
 C        -0.998867         1.228741         0.092212
 C        -1.708552         1.199172        -1.307253
 H        -4.534292         0.026557        -2.000735
 H        -2.804549        -1.745228        -2.892173
 H        -1.055838        -0.701127        -2.686262
 H        -2.937531        -1.879336        -0.427005
 H        -0.776325        -2.022653         0.867253
 H        -0.236974        -2.018304        -0.825943
 H        -1.605952         0.952092         0.976776
 H        -0.380928         2.047963         0.382151
 H        -2.410128         2.007322        -1.338416
 H        -0.925139         1.374822        -2.084923
