19
Iteration:  1991charge 0 multiplicity 1
 O        -3.829907         0.351604        -1.187356
 C        -2.448746         0.029620        -1.474279
 C        -2.119384        -1.062959        -2.411177
 C        -2.149729        -1.354739        -0.924817
 C        -0.810937        -1.346771        -0.126217
 C        -0.087683        -0.030739         0.012341
 O         1.107412         0.033400        -0.063042
 C        -1.048947         1.265057         0.036498
 C        -1.616522         1.271877        -1.330850
 H        -4.086151         0.817267        -1.953472
 H        -2.849221        -1.429129        -3.185525
 H        -1.093876        -1.078883        -2.735849
 H        -3.003824        -1.734421        -0.363263
 H        -1.128367        -1.448756         0.919687
 H         0.005827        -2.037403        -0.392032
 H        -1.746316         0.948825         0.869915
 H        -0.552709         2.232300         0.381535
 H        -2.232100         2.147629        -1.462605
 H        -0.929171         1.445185        -2.244426
