19
Iteration:  4105charge 0 multiplicity 1
 O        -3.950411         0.264883        -1.146177
 C        -2.659661         0.031403        -1.451247
 C        -2.361233        -1.056438        -2.410125
 C        -2.038187        -1.279858        -0.957733
 C        -0.584068        -1.325373        -0.501058
 C        -0.001777        -0.029430        -0.008874
 O         1.140859         0.087436         0.470314
 C        -0.869234         1.194695        -0.146118
 C        -1.695510         1.324930        -1.462870
 H        -4.012370         0.295440        -0.213191
 H        -3.045305        -1.426198        -3.105471
 H        -1.423211        -0.642613        -3.015171
 H        -2.846480        -1.741381        -0.385380
 H        -0.757231        -2.006590         0.368113
 H         0.069694        -1.763411        -1.264845
 H        -1.549185         1.181364         0.707044
 H        -0.203445         1.994948         0.045531
 H        -2.255927         2.199680        -1.349529
 H        -1.071831         1.234574        -2.499039
