19
Iteration:  3743
 O        -3.843131         0.287735        -0.858346
 C        -2.625244        -0.012374        -1.523654
 C        -2.565237        -1.161704        -2.366626
 C        -1.952862        -1.244383        -1.014582
 C        -0.317238        -1.186030        -1.005122
 C        -0.001452         0.007854         0.029607
 O         0.649876        -0.004433         1.033825
 C        -0.660103         1.279612        -0.475319
 C        -1.698963         1.196197        -1.541455
 H        -3.627566         0.673030         0.019472
 H        -3.564394        -1.604371        -2.556986
 H        -1.843570        -1.165712        -3.142674
 H        -2.544829        -1.844576        -0.290276
 H        -0.010807        -2.138881        -0.465862
 H         0.222424        -0.996338        -1.927844
 H        -1.062064         1.884192         0.397414
 H         0.146209         1.974508        -0.834954
 H        -2.210517         2.078817        -1.436437
 H        -1.139774         1.331420        -2.558415
