19
Iteration:  1107
 O        -3.968434         0.262089        -1.256187
 C        -2.604956         0.101491        -1.525012
 C        -2.344550        -1.034572        -2.538789
 C        -2.092456        -1.187760        -0.897741
 C        -0.739674        -1.356172        -0.249329
 C         0.032967         0.019897         0.013856
 O         1.259485        -0.014572         0.366979
 C        -0.927986         1.195162        -0.104777
 C        -1.641425         1.284990        -1.444800
 H        -4.109124         0.584901        -0.225684
 H        -3.238877        -1.420471        -2.923939
 H        -1.315059        -1.024218        -2.984844
 H        -2.868922        -1.784872        -0.360693
 H        -0.826120        -1.914903         0.726821
 H        -0.017544        -2.114049        -0.800943
 H        -1.793410         1.254260         0.626301
 H        -0.099157         1.941777         0.198567
 H        -2.256409         2.212086        -1.623177
 H        -0.875753         1.311288        -2.238977
