19
Iteration:  1912charge 0 multiplicity 1
 O        -3.967885         0.290951        -1.342132
 C        -2.574581         0.123269        -1.484757
 C        -2.183552        -1.116879        -2.371528
 C        -2.128195        -1.242491        -0.838598
 C        -0.745944        -1.358820        -0.258926
 C         0.016769        -0.048239        -0.087290
 O         1.202960        -0.028043         0.190173
 C        -0.833131         1.266914        -0.020170
 C        -1.796529         1.362968        -1.258263
 H        -4.306035         0.266496        -2.186238
 H        -2.931619        -1.486395        -3.030314
 H        -1.196052        -1.122230        -2.906526
 H        -2.995296        -1.709183        -0.367141
 H        -0.837971        -1.655217         0.780394
 H        -0.100338        -2.123269        -0.702882
 H        -1.283465         1.378321         0.989064
 H        -0.108510         2.107428         0.023555
 H        -2.414843         2.114039        -0.938786
 H        -1.206609         1.464219        -2.185819
