19
Iteration:  2442
 O        -4.113781         0.291591        -1.505583
 C        -2.636276         0.047376        -1.426771
 C        -2.070905        -1.047933        -2.324201
 C        -2.112005        -1.248671        -0.848417
 C        -0.764707        -1.288613        -0.260021
 C         0.063258         0.027155        -0.011702
 O         1.286019        -0.121347         0.190811
 C        -0.714256         1.306696        -0.150659
 C        -1.870398         1.371890        -1.133136
 H        -4.569613        -0.554214        -1.686980
 H        -3.010940        -1.491622        -2.906569
 H        -1.134510        -1.051666        -2.862460
 H        -2.878539        -1.949079        -0.385973
 H        -0.826319        -1.612561         0.769699
 H        -0.073631        -2.107851        -0.499073
 H        -1.314165         1.172644         0.797886
 H        -0.087985         2.277350        -0.238822
 H        -2.570300         2.152619        -0.857456
 H        -1.584034         1.710527        -2.032256
