19
Iteration:   598charge 0 multiplicity 1
 O        -3.811469         0.356845        -1.083515
 C        -2.527642         0.073963        -1.562272
 C        -2.518544        -1.112137        -2.375032
 C        -2.006579        -1.198973        -0.978560
 C        -0.560981        -1.404701        -0.553135
 C        -0.023895        -0.012951        -0.008976
 O         0.993758         0.058850         0.650996
 C        -0.910724         1.182952        -0.182478
 C        -1.642008         1.244395        -1.569250
 H        -3.637035         0.909937        -0.402305
 H        -3.621613        -1.405592        -2.576619
 H        -1.821752        -1.278231        -3.196285
 H        -2.736497        -1.527336        -0.219580
 H        -0.537413        -2.194356         0.225754
 H         0.165583        -1.827505        -1.275388
 H        -1.667328         1.292926         0.652698
 H        -0.275435         2.061594        -0.204030
 H        -2.154217         2.176504        -1.686421
 H        -0.910006         1.153160        -2.416791
