19
Iteration:  3098charge 0 multiplicity 1
 O        -4.033003         0.309011        -1.649430
 C        -2.602629        -0.008395        -1.485353
 C        -1.868546        -0.880098        -2.372709
 C        -2.031522        -1.244011        -0.838711
 C        -0.808093        -1.278664         0.168666
 C         0.023272        -0.067979        -0.044219
 O         1.186575        -0.240350        -0.239957
 C        -0.800322         1.352053        -0.107972
 C        -2.042947         1.325162        -0.865464
 H        -4.441177        -0.017534        -0.887593
 H        -2.606466        -1.401176        -3.114484
 H        -0.893024        -0.590050        -2.739853
 H        -2.493446        -2.233844        -0.731614
 H        -1.170217        -1.268764         1.172187
 H        -0.066838        -2.054903         0.020167
 H        -0.962902         1.504703         0.916752
 H        -0.139171         2.156715        -0.380647
 H        -2.933716         1.971337        -0.527447
 H        -1.742968         1.732662        -1.767003
