19
Iteration:  3164charge 0 multiplicity 1
 O        -3.945604         0.119433        -1.761423
 C        -2.568850         0.071948        -1.387692
 C        -1.844016        -0.816672        -2.159623
 C        -2.077631        -1.235668        -0.758634
 C        -0.834789        -1.289731         0.084620
 C        -0.023754        -0.089981        -0.020836
 O         1.147284        -0.230266        -0.399656
 C        -0.800585         1.300445        -0.051058
 C        -2.016240         1.448409        -0.938635
 H        -4.436939         0.648615        -1.062508
 H        -2.301949        -1.359312        -3.077032
 H        -0.843460        -0.618422        -2.437853
 H        -2.754462        -2.097679        -0.473906
 H        -1.101019        -1.515782         1.097157
 H        -0.428630        -2.187945        -0.348281
 H        -1.257837         1.374571         0.907485
 H        -0.074290         2.062592        -0.067509
 H        -2.844961         1.972661        -0.259670
 H        -1.752012         2.096837        -1.745269
