19
Iteration:  1304charge 0 multiplicity 1
 O        -3.948543         0.142102        -1.744664
 C        -2.602097         0.106073        -1.359313
 C        -1.861358        -0.896181        -2.195988
 C        -2.142894        -1.205611        -0.822656
 C        -0.905115        -1.339005         0.131858
 C        -0.064764        -0.061420        -0.068163
 O         1.124956        -0.121007        -0.397833
 C        -0.762316         1.246272         0.122523
 C        -1.800639         1.370743        -1.037039
 H        -4.529615         0.609253        -1.021869
 H        -2.394221        -1.424912        -2.996322
 H        -0.840776        -0.651528        -2.384221
 H        -3.047030        -1.753906        -0.675314
 H        -1.270093        -1.324881         1.156106
 H        -0.311366        -2.180982        -0.183158
 H        -1.358356         1.161461         1.018178
 H         0.083826         1.945086         0.139964
 H        -2.627740         2.121784        -0.895165
 H        -1.417069         1.781105        -1.957231
