19
Iteration:   750
 O        -3.720828         0.320235        -0.813595
 C        -2.601414         0.033810        -1.442894
 C        -2.790770        -1.057370        -2.514243
 C        -1.893894        -1.265124        -1.117130
 C        -0.395737        -1.181273        -0.848371
 C        -0.029985         0.044664         0.105647
 O         0.617997         0.038625         1.111122
 C        -0.661016         1.230311        -0.507904
 C        -1.562824         1.047799        -1.699701
 H        -3.624169         0.363991         0.108353
 H        -3.727848        -1.440282        -2.234707
 H        -2.286357        -1.119271        -3.558866
 H        -2.383177        -1.896276        -0.425759
 H         0.090096        -2.041585        -0.367643
 H         0.158128        -1.040200        -1.804656
 H        -1.134462         1.768480         0.343577
 H         0.187319         1.822007        -0.808650
 H        -1.962207         2.028660        -1.854359
 H        -1.022660         0.861252        -2.612522
