19
Iteration:   487charge 0 multiplicity 1
 O        -3.923616         0.250825        -1.324014
 C        -2.536043         0.110066        -1.618725
 C        -2.424534        -1.218753        -2.358821
 C        -2.106458        -1.154804        -0.850134
 C        -0.672248        -1.282142        -0.321169
 C         0.134192        -0.050020        -0.115823
 O         1.264825        -0.055229         0.381284
 C        -0.893650         1.251626        -0.051471
 C        -1.808611         1.375921        -1.335886
 H        -4.276659         1.140991        -1.555011
 H        -3.383814        -1.580921        -2.571440
 H        -1.576852        -1.507565        -3.058620
 H        -2.984546        -1.509505        -0.207256
 H        -0.927031        -1.667714         0.672689
 H         0.034259        -2.002843        -0.788630
 H        -1.456987         0.916379         0.851936
 H        -0.344151         2.188828         0.153967
 H        -2.335072         2.319957        -1.267981
 H        -1.073530         1.466811        -2.113457
