19
Iteration:  4741
 O        -4.016705         0.155233        -0.998418
 C        -2.685733         0.054788        -1.272456
 C        -2.256733        -0.548716        -2.485723
 C        -1.890394        -1.311605        -1.164459
 C        -0.556920        -1.451397        -0.535071
 C         0.026828        -0.045138        -0.141632
 O         0.697196         0.044558         0.983375
 C        -0.368362         1.093186        -1.016917
 C        -1.906803         1.304485        -0.921712
 H        -4.482267        -0.378755        -1.692847
 H        -2.972580        -1.065947        -3.033385
 H        -1.519598        -0.069088        -3.197224
 H        -2.527976        -2.172478        -1.080652
 H        -0.462872        -2.199128         0.347106
 H         0.152466        -1.979072        -1.308279
 H         0.200618         1.993810        -0.716027
 H         0.024314         0.980885        -2.009920
 H        -2.072842         1.687607         0.094286
 H        -2.150492         2.140813        -1.455434
