19
Iteration:  1800charge 0 multiplicity 1
 O        -4.049747         0.223110        -1.251128
 C        -2.548433         0.058480        -1.421918
 C        -2.042070        -1.048968        -2.409601
 C        -2.075783        -1.270038        -0.908922
 C        -0.803121        -1.374567        -0.178666
 C        -0.020287        -0.085625        -0.097775
 O         1.108308        -0.032579         0.236082
 C        -0.766041         1.273825        -0.174835
 C        -1.791117         1.406417        -1.333777
 H        -4.084824         1.253929        -1.477683
 H        -2.960164        -1.457540        -2.950498
 H        -1.055463        -0.796505        -2.698914
 H        -2.893724        -1.883279        -0.508506
 H        -1.058198        -1.756598         0.817315
 H        -0.126873        -2.090352        -0.664757
 H        -1.275254         1.453067         0.866049
 H        -0.067520         2.111916        -0.267187
 H        -2.355069         2.338588        -1.163086
 H        -1.064871         1.533957        -2.196433
