19
Iteration:  2798
 O        -3.999921         0.304969        -1.472706
 C        -2.637767         0.046823        -1.499863
 C        -2.201085        -1.122098        -2.389624
 C        -2.124371        -1.292484        -0.889540
 C        -0.677493        -1.221001        -0.257287
 C         0.000759         0.046037        -0.032488
 O         1.251430        -0.050066         0.080877
 C        -0.890450         1.206197         0.087985
 C        -1.739942         1.292448        -1.156172
 H        -4.176588         0.849558        -0.664854
 H        -2.932262        -1.645225        -2.930725
 H        -1.218285        -0.984667        -3.025838
 H        -2.957743        -1.741747        -0.292722
 H        -0.750910        -1.564768         0.768416
 H        -0.020386        -1.993872        -0.670283
 H        -1.534258         1.102092         0.972573
 H        -0.281175         2.101680         0.089674
 H        -2.287756         2.185757        -1.117628
 H        -1.182123         1.419507        -2.020969
