19
Iteration:  3592
 O        -4.017291         0.249709        -1.138621
 C        -2.586877         0.017891        -1.552811
 C        -2.425131        -1.052011        -2.436096
 C        -2.027905        -1.233726        -0.979533
 C        -0.598391        -1.253895        -0.573106
 C        -0.029756         0.020055         0.145999
 O         1.143728         0.023291         0.578227
 C        -0.782307         1.269596        -0.167011
 C        -1.662518         1.190880        -1.465013
 H        -4.042172         0.189665        -0.130821
 H        -3.333409        -1.588549        -2.652552
 H        -1.862516        -1.015181        -3.349497
 H        -2.699468        -1.678996        -0.236128
 H        -0.212238        -2.163533         0.061096
 H         0.032193        -1.434769        -1.484890
 H        -1.550888         1.448256         0.576155
 H        -0.190304         2.218442        -0.301379
 H        -2.394488         2.096725        -1.624995
 H        -0.979237         1.334831        -2.334756
