19
Iteration:  3874
 O        -3.787208         0.312094        -0.711671
 C        -2.570424        -0.006062        -1.323503
 C        -2.621262        -1.189162        -2.446243
 C        -1.841144        -1.260566        -1.084074
 C        -0.324826        -1.108357        -0.938049
 C        -0.067425         0.004379        -0.051395
 O         0.516772        -0.061911         1.034008
 C        -0.708068         1.375263        -0.464522
 C        -1.593030         1.167261        -1.732206
 H        -3.824968         0.264233         0.212008
 H        -3.618878        -1.548433        -2.645904
 H        -2.004947        -0.848902        -3.295202
 H        -2.348222        -1.946099        -0.414952
 H         0.271567        -2.045601        -0.647433
 H         0.193497        -0.770541        -1.869078
 H        -1.330678         1.644383         0.415711
 H         0.100789         2.067454        -0.454260
 H        -2.067730         1.941436        -2.184679
 H        -0.911284         0.725525        -2.541805
