19
Iteration:   617
 O        -3.974113         0.398868        -1.110364
 C        -2.575326         0.048399        -1.402723
 C        -2.490615        -1.127512        -2.370738
 C        -2.023192        -1.298084        -0.901465
 C        -0.532343        -1.302387        -0.646912
 C        -0.059049        -0.038070         0.014371
 O         0.955992         0.013911         0.684411
 C        -0.783293         1.294900        -0.260817
 C        -1.538779         1.184114        -1.572044
 H        -3.958239         1.158506        -0.553903
 H        -3.271171        -1.753372        -2.816667
 H        -1.719629        -1.039873        -3.117345
 H        -2.729738        -2.017452        -0.386912
 H        -0.019690        -2.059695        -0.055497
 H        -0.061665        -1.326398        -1.652494
 H        -1.588918         1.302549         0.546700
 H        -0.061463         2.087318         0.018026
 H        -1.958089         2.166058        -1.838528
 H        -0.883482         1.023063        -2.411568
