19
Iteration:   818charge 0 multiplicity 1
 O        -3.798765         0.381748        -0.872341
 C        -2.501247         0.024690        -1.439280
 C        -2.644741        -1.191558        -2.308311
 C        -1.880370        -1.326596        -0.969743
 C        -0.311259        -1.148786        -0.984783
 C        -0.068855        -0.033818        -0.020340
 O         0.460398        -0.126850         1.099951
 C        -0.595029         1.376430        -0.524782
 C        -1.609236         1.228957        -1.657151
 H        -3.537750         0.848349         0.043108
 H        -3.684322        -1.693548        -2.233168
 H        -2.065588        -1.227494        -3.226830
 H        -2.473216        -1.902519        -0.205116
 H         0.260913        -2.120240        -0.847027
 H        -0.011388        -0.938721        -2.007498
 H        -1.241747         1.929923         0.190854
 H         0.238253         2.020190        -0.854123
 H        -2.190050         2.108920        -1.790235
 H        -1.133262         1.020517        -2.607766
