19
Iteration:  4548
 O        -4.123805         0.232414        -1.506207
 C        -2.709988         0.021282        -1.325581
 C        -2.004683        -0.638568        -2.462865
 C        -1.998900        -1.316147        -1.108529
 C        -0.869382        -1.305953        -0.074393
 C         0.073801        -0.010532        -0.086266
 O         1.282454         0.000891         0.424151
 C        -0.520832         1.139291        -0.763531
 C        -2.079018         1.131596        -0.648544
 H        -4.545362        -0.115513        -0.620348
 H        -2.737726        -1.031720        -2.986277
 H        -1.197336        -0.113038        -2.921505
 H        -2.786905        -2.061247        -1.084837
 H        -1.210369        -1.343402         0.966825
 H        -0.270731        -2.251783        -0.265571
 H        -0.003568         2.085707        -0.336482
 H        -0.084035         1.019404        -1.729067
 H        -2.401832         1.125002         0.348448
 H        -2.552229         1.982629        -1.215949
