19
Iteration:  1242
 O        -3.952982         0.367796        -1.594363
 C        -2.541794         0.051892        -1.422637
 C        -1.974072        -0.985836        -2.333759
 C        -2.110255        -1.324850        -0.891062
 C        -0.878088        -1.342227         0.086113
 C        -0.074208        -0.091373        -0.084252
 O         1.161536        -0.028014        -0.223700
 C        -0.857156         1.245664         0.088906
 C        -1.801808         1.303008        -1.081537
 H        -4.486778         0.321341        -0.633633
 H        -2.493092        -1.645118        -3.050090
 H        -0.985380        -0.783447        -2.781897
 H        -2.876910        -2.113188        -0.805793
 H        -1.208402        -1.403618         1.192670
 H         0.052391        -2.053373        -0.088570
 H        -1.359908         1.674712         1.046030
 H        -0.021469         1.897360        -0.121867
 H        -2.543152         2.086077        -0.905327
 H        -1.129790         1.587613        -1.921367
