19
Iteration:  2227
 O        -4.048850         0.339516        -1.417265
 C        -2.666678         0.034185        -1.457991
 C        -1.983510        -1.007043        -2.304751
 C        -2.088196        -1.231978        -0.874965
 C        -0.821765        -1.315112         0.017441
 C         0.008268        -0.079366        -0.041839
 O         1.242846        -0.015619        -0.049147
 C        -0.838292         1.205426        -0.015005
 C        -1.849446         1.299666        -1.211785
 H        -4.165925         0.301070        -2.329364
 H        -2.594246        -1.646902        -2.875755
 H        -1.019156        -0.883566        -2.900268
 H        -2.819069        -2.003467        -0.929940
 H        -0.838821        -1.509806         1.115593
 H        -0.220231        -2.147734        -0.401286
 H        -1.216732         1.303709         1.037010
 H        -0.082794         2.037050        -0.105077
 H        -2.504179         2.135659        -1.119072
 H        -1.333602         1.644662        -2.156618
