19
Iteration:   552charge 0 multiplicity 1
 O        -3.885425         0.493264        -1.079304
 C        -2.634398         0.004578        -1.496673
 C        -2.366703        -1.035059        -2.484030
 C        -2.066767        -1.279464        -0.984744
 C        -0.641227        -1.314563        -0.436307
 C        -0.048397         0.021248         0.051328
 O         1.096867         0.019350         0.465863
 C        -0.886516         1.302580        -0.152957
 C        -1.563312         1.077093        -1.462740
 H        -4.326968        -0.179643        -0.673664
 H        -3.251705        -1.577627        -2.740169
 H        -1.578937        -0.992516        -3.273086
 H        -2.726563        -2.008860        -0.418400
 H        -0.629507        -1.932502         0.479124
 H         0.084267        -1.893447        -1.051936
 H        -1.737852         1.385878         0.601728
 H        -0.279783         2.232491        -0.156419
 H        -2.178211         1.880796        -1.907498
 H        -0.831291         0.862030        -2.227626
