19
Iteration:  4593charge 0 multiplicity 1
 O        -4.022197         0.144154        -1.298821
 C        -2.654175         0.080569        -1.334228
 C        -2.060862        -0.749508        -2.463947
 C        -2.022407        -1.263915        -1.036327
 C        -0.771526        -1.291061        -0.298668
 C         0.040953        -0.073284        -0.111620
 O         1.048030        -0.091149         0.593051
 C        -0.470686         1.253757        -0.843875
 C        -2.045665         1.320411        -0.813335
 H        -4.339051        -0.713707        -0.855517
 H        -2.867654        -1.028168        -3.073152
 H        -1.081861        -0.472422        -2.855743
 H        -2.668055        -2.118906        -0.791102
 H        -1.161214        -1.628422         0.640618
 H        -0.099324        -2.116319        -0.696340
 H        -0.224872         2.063630        -0.114390
 H        -0.027806         1.525034        -1.774493
 H        -2.308224         1.414182         0.220406
 H        -2.388944         2.182577        -1.366771
