19
Iteration:  3654
 O        -3.879746         0.425800        -1.007659
 C        -2.595707         0.013249        -1.464338
 C        -2.554095        -1.199487        -2.495814
 C        -1.927323        -1.335335        -0.999724
 C        -0.431130        -1.245136        -0.727758
 C        -0.024613         0.000618         0.068734
 O         1.027586        -0.001167         0.806944
 C        -0.928281         1.286962        -0.286552
 C        -1.719542         1.285581        -1.578278
 H        -3.972401         0.105679        -0.052443
 H        -3.417525        -1.808331        -2.546911
 H        -1.953171        -0.929300        -3.387840
 H        -2.549507        -1.918722        -0.311871
 H        -0.149478        -2.046489        -0.042861
 H         0.131074        -1.451385        -1.640330
 H        -1.495755         1.495742         0.669665
 H        -0.124160         2.010028        -0.257769
 H        -2.279059         2.152089        -1.711905
 H        -0.954273         1.205900        -2.469197
