19
Iteration:  1181charge 0 multiplicity 1
 O        -4.069943         0.268462        -1.532275
 C        -2.545338         0.137782        -1.452835
 C        -2.150913        -1.127803        -2.414808
 C        -2.129592        -1.150993        -0.826162
 C        -0.737397        -1.329777        -0.143406
 C         0.036389        -0.123027        -0.047869
 O         1.245049        -0.002267         0.088581
 C        -0.866250         1.115174         0.032895
 C        -1.738575         1.442000        -1.234530
 H        -4.278253         0.660416        -0.631195
 H        -2.999002        -1.600798        -2.779324
 H        -1.155505        -1.063498        -2.936987
 H        -2.942195        -1.813359        -0.452338
 H        -0.925238        -1.643041         0.911226
 H        -0.054279        -2.070842        -0.511765
 H        -1.559505         1.056374         0.816708
 H        -0.171415         1.991013         0.201193
 H        -2.495810         2.239017        -1.125648
 H        -1.199921         1.705199        -2.160007
