19
Iteration:  3570
 O        -3.958209         0.295556        -1.163158
 C        -2.627248         0.022165        -1.443693
 C        -2.458316        -1.127056        -2.457910
 C        -1.983271        -1.303222        -1.054046
 C        -0.563768        -1.315174        -0.498305
 C         0.034359         0.081220        -0.047454
 O         1.088439         0.007120         0.550650
 C        -0.852070         1.323646        -0.096492
 C        -1.709815         1.285148        -1.418456
 H        -4.040295         0.790591        -0.356480
 H        -3.225495        -1.728506        -2.837497
 H        -1.701849        -1.155508        -3.254174
 H        -2.506652        -1.969793        -0.375587
 H        -0.439732        -2.037461         0.411803
 H         0.154896        -1.799423        -1.205672
 H        -1.441159         1.217345         0.820171
 H        -0.108991         2.173344         0.055024
 H        -2.284090         2.266826        -1.700665
 H        -1.136399         1.083835        -2.341112
