19
Iteration:  4032charge 0 multiplicity 1
 O        -3.893124         0.309730        -1.044600
 C        -2.620501         0.029587        -1.472639
 C        -2.533736        -1.128511        -2.396728
 C        -1.986750        -1.240396        -0.943619
 C        -0.500960        -1.290120        -0.726202
 C        -0.026856         0.013060         0.013756
 O         0.970112         0.074901         0.629924
 C        -0.908473         1.217585        -0.126772
 C        -1.559434         1.228469        -1.568165
 H        -4.002381         0.460199        -0.041839
 H        -3.239135        -1.670509        -2.951792
 H        -1.518441        -1.113279        -2.955277
 H        -2.649216        -1.875196        -0.324914
 H        -0.041685        -2.033647        -0.130588
 H         0.074360        -1.058222        -1.675108
 H        -1.597181         1.242925         0.741546
 H        -0.207420         2.141784        -0.007624
 H        -2.103533         2.152502        -1.855428
 H        -0.879084         0.926903        -2.292377
