19
Iteration:  4369charge 0 multiplicity 1
 O        -4.012270         0.176901        -1.710566
 C        -2.610969         0.030202        -1.377451
 C        -1.796767        -0.824294        -2.283212
 C        -2.059095        -1.312777        -0.874589
 C        -0.886296        -1.329484         0.238655
 C        -0.016164        -0.037792        -0.100846
 O         1.147537        -0.101471        -0.509224
 C        -0.807922         1.205257         0.065406
 C        -1.971553         1.363142        -0.866052
 H        -4.459816         0.618576        -0.861130
 H        -2.107473        -1.394591        -3.123835
 H        -0.757962        -0.236403        -2.509183
 H        -2.637841        -2.196925        -0.704942
 H        -1.333416        -1.063502         1.317015
 H        -0.196260        -2.205986         0.165327
 H        -1.087895         1.211062         1.161678
 H        -0.218006         2.213672        -0.096524
 H        -2.630783         2.027669        -0.456544
 H        -1.515662         1.955210        -1.829691
