19
Iteration:  2828
 O        -3.974968         0.425908        -1.548766
 C        -2.602841         0.068331        -1.474733
 C        -2.192112        -1.057909        -2.313183
 C        -2.126638        -1.357610        -0.890956
 C        -0.702495        -1.405288        -0.167861
 C         0.061062        -0.014479         0.038922
 O         1.257771         0.123408        -0.021462
 C        -0.915520         1.135294         0.095476
 C        -1.761687         1.295794        -1.222353
 H        -4.374442         0.460614        -0.610695
 H        -3.069420        -1.580978        -2.689311
 H        -1.305003        -1.082091        -2.993643
 H        -2.928284        -1.836987        -0.339760
 H        -0.862858        -1.817798         0.845134
 H        -0.052018        -2.185465        -0.625244
 H        -1.668846         0.977039         0.876089
 H        -0.334017         1.991813         0.282680
 H        -2.391477         2.153665        -0.972175
 H        -1.210762         1.452157        -2.244288
