19
Iteration:  1706
 O        -3.861805         0.471763        -1.366136
 C        -2.592521         0.057647        -1.463985
 C        -2.051389        -1.040651        -2.388579
 C        -2.094262        -1.278186        -0.783539
 C        -0.824217        -1.408663        -0.109898
 C        -0.049587        -0.019671        -0.010551
 O         1.154105         0.051215        -0.086964
 C        -0.997868         1.218173         0.119303
 C        -1.704646         1.198960        -1.309414
 H        -4.389365         0.054595        -1.958306
 H        -2.758574        -1.626027        -2.798560
 H        -1.025736        -0.811606        -2.694166
 H        -2.971838        -1.871501        -0.488879
 H        -0.774292        -1.951509         0.810931
 H        -0.218603        -2.025190        -0.793441
 H        -1.555216         0.933987         0.938489
 H        -0.389527         2.152544         0.267726
 H        -2.435305         1.980434        -1.422471
 H        -0.944509         1.357925        -2.049045
