19
Iteration:  4840
 O        -4.117854         0.058166        -1.149919
 C        -2.631404         0.085699        -1.319145
 C        -2.309466        -0.706105        -2.516014
 C        -1.977930        -1.235497        -1.061417
 C        -0.473782        -1.373136        -0.637156
 C         0.023300        -0.098321        -0.092551
 O         0.797878        -0.058837         0.951887
 C        -0.354785         1.200233        -0.891452
 C        -1.896891         1.344292        -0.900099
 H        -4.298634         0.885705        -0.535140
 H        -3.199149        -1.135290        -3.087440
 H        -1.443824        -0.353186        -3.128761
 H        -2.687619        -1.979738        -0.580160
 H        -0.320934        -2.288614         0.017354
 H         0.116325        -1.681229        -1.559606
 H        -0.083241         2.156874        -0.332750
 H         0.280641         1.166945        -1.731498
 H        -2.347890         1.812536         0.041947
 H        -2.023960         2.088121        -1.683222
