19
Iteration:  3311
 O        -3.959873         0.222345        -1.620837
 C        -2.596786         0.075201        -1.497536
 C        -2.166561        -1.059725        -2.361781
 C        -2.091142        -1.219253        -0.843901
 C        -0.762897        -1.323461        -0.048215
 C         0.082221        -0.048554         0.022857
 O         1.254873        -0.049630        -0.169352
 C        -0.871004         1.295546         0.198946
 C        -1.849762         1.326266        -1.115104
 H        -4.464302         0.444930        -0.795305
 H        -2.952699        -1.719487        -2.923768
 H        -1.346761        -0.842519        -2.967757
 H        -2.954294        -1.806465        -0.579348
 H        -0.768186        -1.486434         1.029837
 H        -0.081580        -2.018686        -0.577318
 H        -1.275159         1.351864         1.154360
 H        -0.218692         2.210408         0.110168
 H        -2.754010         1.998016        -0.888223
 H        -1.387956         1.827672        -1.997464
