19
Iteration:  2331charge 0 multiplicity 1
 O        -3.946529         0.418962        -1.430751
 C        -2.547783         0.033175        -1.453479
 C        -2.006412        -0.962303        -2.356394
 C        -2.007151        -1.340208        -0.874186
 C        -0.861017        -1.356918         0.107116
 C        -0.089404        -0.073194        -0.071262
 O         1.152511         0.046958        -0.254215
 C        -0.982106         1.189168         0.111731
 C        -1.695447         1.305966        -1.256681
 H        -4.406375        -0.451801        -1.347798
 H        -2.554033        -1.598332        -2.970922
 H        -0.912157        -0.808873        -2.618155
 H        -2.931469        -1.919833        -0.621246
 H        -1.354830        -1.309857         1.087453
 H        -0.250252        -2.229167        -0.083990
 H        -1.535722         1.065596         1.142420
 H        -0.247685         2.007234         0.219423
 H        -2.463240         2.124644        -1.174842
 H        -0.928598         1.408518        -1.968783
