19
Iteration:  3767charge 0 multiplicity 1
 O        -3.908559         0.189318        -0.863744
 C        -2.569792        -0.000820        -1.360605
 C        -2.574646        -1.135013        -2.304274
 C        -1.897224        -1.267829        -1.025122
 C        -0.380265        -1.109561        -0.903842
 C        -0.027853         0.016668        -0.051703
 O         0.573837        -0.128212         1.015551
 C        -0.564944         1.413626        -0.485466
 C        -1.640168         1.274367        -1.706485
 H        -4.009499         0.228515         0.047853
 H        -3.449592        -1.692242        -2.321727
 H        -1.982221        -0.950086        -3.247427
 H        -2.508658        -1.993162        -0.516175
 H         0.144065        -2.024198        -0.501224
 H         0.022115        -0.780570        -1.850917
 H        -0.851620         1.918231         0.476917
 H         0.439026         1.919923        -0.735742
 H        -2.250152         2.193233        -1.894896
 H        -0.923319         1.178443        -2.588313
