19
Iteration:   764charge 0 multiplicity 1
 O        -3.804195         0.351159        -0.766595
 C        -2.517412         0.017362        -1.478912
 C        -2.720283        -1.101866        -2.353098
 C        -1.903719        -1.263755        -1.106799
 C        -0.329670        -1.221647        -0.893575
 C        -0.053767        -0.038937         0.032725
 O         0.560496         0.010700         1.109404
 C        -0.666003         1.294506        -0.496557
 C        -1.546359         1.190222        -1.790447
 H        -3.550245         0.255143         0.272140
 H        -3.686277        -1.606756        -2.584777
 H        -2.156196        -1.044883        -3.303636
 H        -2.458726        -1.808190        -0.301556
 H        -0.122206        -2.291781        -0.544238
 H         0.318305        -1.115138        -1.774879
 H        -1.344466         1.746386         0.296666
 H         0.204546         1.993541        -0.620409
 H        -2.140612         2.030570        -2.048104
 H        -0.897887         0.825396        -2.585622
