19
Iteration:  2114charge 0 multiplicity 1
 O        -4.059858         0.138806        -1.437491
 C        -2.604559         0.102660        -1.430730
 C        -2.170355        -0.955964        -2.296421
 C        -2.118920        -1.249932        -0.860381
 C        -0.750001        -1.308396        -0.187373
 C         0.000060        -0.033788        -0.098397
 O         1.213350        -0.062238         0.235130
 C        -0.661871         1.222141        -0.197444
 C        -1.842976         1.402151        -1.160048
 H        -4.471316         0.122367        -2.427750
 H        -2.938546        -1.385754        -3.045729
 H        -1.240640        -0.791870        -2.772772
 H        -2.839990        -1.947156        -0.381200
 H        -0.947203        -1.472667         0.888088
 H        -0.157476        -2.112894        -0.630445
 H        -1.138954         1.386290         0.849869
 H         0.089715         1.971585        -0.355438
 H        -2.361985         2.236385        -0.826989
 H        -1.229709         1.896097        -2.079682
