19
Iteration:  3472
 O        -4.000797         0.405811        -1.257676
 C        -2.597389         0.014690        -1.464845
 C        -2.320360        -1.046397        -2.454389
 C        -2.075713        -1.325375        -0.949437
 C        -0.616898        -1.389494        -0.389700
 C         0.034411        -0.033247        -0.017983
 O         1.192199         0.115013         0.356096
 C        -0.921277         1.246123        -0.052923
 C        -1.695789         1.268394        -1.359884
 H        -4.245063        -0.033708        -0.447576
 H        -3.078000        -1.675828        -2.835792
 H        -1.451582        -1.118475        -3.108306
 H        -2.830267        -2.002426        -0.590606
 H        -0.426948        -2.009959         0.531410
 H         0.091013        -1.923949        -1.060057
 H        -1.711062         1.220823         0.786639
 H        -0.143947         2.050118         0.088349
 H        -2.327150         2.230872        -1.217645
 H        -1.185892         1.405984        -2.240964
