19
Iteration:  1078charge 0 multiplicity 1
 O        -3.961867         0.430230        -1.171696
 C        -2.585553         0.008379        -1.491606
 C        -2.339237        -1.134448        -2.521497
 C        -2.040485        -1.257648        -0.950906
 C        -0.655597        -1.386289        -0.347615
 C        -0.017843         0.007109        -0.044740
 O         1.082964         0.035266         0.429719
 C        -0.870934         1.233327        -0.095890
 C        -1.598584         1.280089        -1.447229
 H        -4.042200         0.662992        -0.182633
 H        -3.193475        -1.647504        -2.960697
 H        -1.513535        -1.038786        -3.292544
 H        -2.736196        -1.923240        -0.455817
 H        -0.669810        -1.832979         0.645551
 H         0.031837        -2.082684        -0.808637
 H        -1.707875         1.375744         0.578496
 H        -0.074326         1.892451         0.172685
 H        -2.363747         2.060281        -1.482036
 H        -0.933874         1.366805        -2.336117
