19
Iteration:    56
 O        -4.113240         0.285092        -1.389840
 C        -2.614176         0.042047        -1.486653
 C        -1.883824        -0.935913        -2.438584
 C        -2.010995        -1.228216        -0.873757
 C        -0.876181        -1.197510         0.162176
 C         0.025529        -0.093283        -0.089749
 O         1.208210        -0.201502        -0.017970
 C        -0.824564         1.294869        -0.192571
 C        -1.887242         1.317284        -1.266397
 H        -4.295271        -0.208810        -0.537992
 H        -2.490433        -1.463439        -3.114206
 H        -0.813749        -0.651417        -2.569018
 H        -2.767631        -1.948673        -0.543506
 H        -1.271447        -1.084838         1.179593
 H        -0.354317        -2.169068         0.171365
 H        -1.276349         1.360647         0.802386
 H        -0.089767         2.059480        -0.339045
 H        -2.581617         2.070050        -1.004442
 H        -1.286154         1.583853        -2.105334
