19
Iteration:   710charge 0 multiplicity 1
 O        -3.848268         0.381649        -0.811871
 C        -2.538607         0.029364        -1.409120
 C        -2.439649        -1.102560        -2.403311
 C        -1.935583        -1.295129        -1.024737
 C        -0.441635        -1.277251        -0.777547
 C        -0.077426         0.069741        -0.029098
 O         0.633261        -0.107108         0.921988
 C        -0.692382         1.310523        -0.495482
 C        -1.656168         1.187356        -1.665333
 H        -3.550039         0.787552         0.143838
 H        -3.300541        -1.641481        -2.741484
 H        -1.714367        -1.001013        -3.273328
 H        -2.581014        -1.932091        -0.402198
 H        -0.308445        -2.106467        -0.034559
 H         0.131669        -1.332394        -1.715725
 H        -1.201978         1.868609         0.341353
 H         0.115025         2.089074        -0.651815
 H        -2.220675         2.102896        -1.891915
 H        -1.131703         0.985586        -2.635714
