19
Iteration:  4927
 O        -4.144566        -0.005750        -1.076456
 C        -2.672992         0.103832        -1.325576
 C        -2.092981        -0.516376        -2.525111
 C        -1.964912        -1.254577        -1.193594
 C        -0.716138        -1.368647        -0.319962
 C         0.053413        -0.063223        -0.058221
 O         0.934246        -0.089052         0.698849
 C        -0.412489         1.124310        -0.877920
 C        -1.939677         1.394196        -0.806846
 H        -4.413792        -0.006538        -2.017449
 H        -2.772207        -0.861504        -3.421492
 H        -1.218077        -0.255198        -3.047525
 H        -2.732524        -2.069002        -1.071530
 H        -0.825479        -1.960074         0.629712
 H        -0.063363        -1.817865        -0.955010
 H         0.267114         1.891967        -0.579752
 H        -0.062679         0.805624        -1.861111
 H        -2.092109         1.736505         0.289885
 H        -2.348439         2.291172        -1.395727
