19
Iteration:   541
 O        -3.931745         0.507268        -1.125697
 C        -2.603376        -0.009446        -1.337395
 C        -2.308777        -0.981180        -2.462385
 C        -2.067470        -1.255834        -0.880166
 C        -0.655294        -1.405713        -0.457504
 C        -0.038685        -0.013182         0.035485
 O         1.110154         0.057101         0.417866
 C        -0.928037         1.316139        -0.146485
 C        -1.596582         1.037324        -1.510904
 H        -4.559808        -0.303135        -1.196162
 H        -2.969922        -1.663510        -2.933637
 H        -1.454088        -0.659846        -3.146325
 H        -2.890096        -2.017710        -0.622227
 H        -0.788528        -2.105249         0.372834
 H         0.069441        -1.803664        -1.215471
 H        -1.578748         1.682239         0.729853
 H        -0.151417         2.118361        -0.278440
 H        -1.952786         2.007011        -1.908843
 H        -0.764671         0.752822        -2.135134
