19
Iteration:  1055charge 0 multiplicity 1
 O        -3.907123         0.449822        -1.225680
 C        -2.687525         0.058134        -1.453888
 C        -2.353449        -1.047120        -2.421391
 C        -2.025221        -1.376808        -1.010628
 C        -0.646116        -1.361582        -0.424633
 C        -0.060533         0.033453         0.116934
 O         1.126148         0.014239         0.456248
 C        -0.846954         1.307644        -0.142940
 C        -1.663923         1.128390        -1.449286
 H        -4.241464         0.560006        -0.298791
 H        -3.237539        -1.453198        -2.808565
 H        -1.585618        -0.933588        -3.277147
 H        -2.709208        -1.972413        -0.387155
 H        -0.281169        -2.105650         0.273462
 H         0.036596        -1.776060        -1.171600
 H        -1.573566         1.543681         0.667946
 H        -0.043491         2.043609        -0.112634
 H        -2.206237         2.054502        -1.772025
 H        -0.824819         0.995182        -2.153701
