19
Iteration:  1417
 O        -3.975593         0.232071        -1.654180
 C        -2.601454         0.050633        -1.351710
 C        -1.778607        -0.816638        -2.304662
 C        -2.074764        -1.255414        -0.850929
 C        -0.959015        -1.375572         0.168591
 C         0.010056        -0.117411        -0.101029
 O         1.210584        -0.220875        -0.255805
 C        -0.828079         1.362883        -0.103101
 C        -1.970793         1.387657        -0.985037
 H        -4.395216         0.424358        -0.842701
 H        -2.289953        -1.424401        -3.119437
 H        -0.822381        -0.395227        -2.431142
 H        -2.885170        -2.040254        -0.797046
 H        -1.419494        -1.469324         1.122310
 H        -0.494307        -2.400334         0.050455
 H        -1.117807         1.573806         0.914118
 H         0.000393         2.005389        -0.274098
 H        -2.726265         2.069313        -0.643701
 H        -1.735706         1.914352        -1.904444
