19
Iteration:  3690charge 0 multiplicity 1
 O        -3.845606         0.261381        -0.891527
 C        -2.579475        -0.043443        -1.421150
 C        -2.566036        -1.065943        -2.480433
 C        -1.948573        -1.267777        -1.009116
 C        -0.493445        -1.181663        -0.783457
 C        -0.016845         0.056119        -0.042618
 O         0.817177         0.010753         0.872001
 C        -0.801296         1.296687        -0.286628
 C        -1.603072         1.172138        -1.640485
 H        -3.749374         0.376655         0.117083
 H        -3.476210        -1.697589        -2.644414
 H        -2.041303        -0.927430        -3.378503
 H        -2.646969        -1.781673        -0.319693
 H        -0.094340        -2.135838        -0.270519
 H         0.026667        -1.141969        -1.724658
 H        -1.518320         1.643110         0.489919
 H         0.018237         2.089839        -0.348763
 H        -1.770548         2.219980        -2.109568
 H        -0.763098         0.688201        -2.291667
