19
Iteration:  3613
 O        -3.966093         0.306582        -1.115998
 C        -2.642780         0.002573        -1.417658
 C        -2.452696        -1.142025        -2.418355
 C        -2.100111        -1.254552        -0.957841
 C        -0.532447        -1.267190        -0.655752
 C         0.032254        -0.034679        -0.017944
 O         1.073397         0.071409         0.681932
 C        -0.812705         1.268421        -0.194755
 C        -1.644664         1.300195        -1.489392
 H        -4.276085        -0.056167        -0.213783
 H        -3.296693        -1.547569        -2.949847
 H        -1.531434        -1.056139        -2.964257
 H        -2.700106        -2.045223        -0.513317
 H        -0.186642        -2.190699        -0.055154
 H         0.095913        -1.377285        -1.552084
 H        -1.508383         1.420588         0.595006
 H        -0.171974         2.160152        -0.291644
 H        -2.095117         2.281865        -1.832835
 H        -0.778507         1.176139        -2.225999
