19
Iteration:  3231
 O        -3.965815         0.119050        -1.656467
 C        -2.575999         0.082566        -1.423993
 C        -1.939103        -0.962124        -2.368547
 C        -2.035098        -1.233251        -0.833199
 C        -0.920680        -1.282661         0.092961
 C        -0.011443        -0.050525        -0.059884
 O         1.139957        -0.184208        -0.401878
 C        -0.818047         1.383253         0.178927
 C        -1.832687         1.443410        -0.963767
 H        -4.359521        -0.037187        -0.783517
 H        -2.433606        -1.567676        -3.027595
 H        -0.911489        -0.718534        -2.814745
 H        -2.771018        -2.041500        -0.548301
 H        -1.314736        -1.235401         1.094421
 H        -0.357521        -2.217275         0.028625
 H        -1.300343         1.302167         1.114559
 H        -0.210430         2.256179         0.162555
 H        -2.722162         2.204474        -0.742789
 H        -1.368567         1.802193        -1.845822
