19
Iteration:  3191charge 0 multiplicity 1
 O        -3.964685         0.286762        -1.716123
 C        -2.617527         0.005893        -1.390093
 C        -1.812335        -0.924769        -2.230170
 C        -2.087702        -1.252516        -0.867891
 C        -0.874311        -1.331730         0.197865
 C        -0.036812        -0.100231        -0.115750
 O         1.144372        -0.057075        -0.410820
 C        -0.731124         1.263459         0.022321
 C        -1.980317         1.324273        -0.911381
 H        -4.585092         0.201862        -0.927574
 H        -2.332827        -1.579334        -2.920032
 H        -0.871638        -0.486134        -2.611981
 H        -2.751920        -2.112087        -0.819798
 H        -1.357560        -1.052493         1.169645
 H        -0.478486        -2.369406         0.127110
 H        -1.137020         1.314345         1.084387
 H         0.056015         2.085288         0.001171
 H        -2.706533         1.932003        -0.533945
 H        -1.588089         1.855440        -1.824633
