19
Iteration:  1827
 O        -4.024202         0.162987        -1.210766
 C        -2.577509         0.041938        -1.517739
 C        -2.235928        -0.947309        -2.550881
 C        -2.087026        -1.213958        -0.939747
 C        -0.827792        -1.270740        -0.105413
 C         0.031224        -0.044834         0.039287
 O         1.255218        -0.102382         0.316964
 C        -0.684692         1.290337        -0.206129
 C        -1.827152         1.323504        -1.309384
 H        -4.352072         0.640081        -2.114607
 H        -3.060628        -1.536236        -2.910227
 H        -1.283202        -0.793880        -3.169947
 H        -2.798685        -1.988378        -0.670328
 H        -1.114494        -1.734460         0.887556
 H        -0.144311        -2.060535        -0.509367
 H        -1.222969         1.487859         0.747145
 H         0.033666         2.138383        -0.470961
 H        -2.425748         2.202524        -1.000565
 H        -1.380272         1.799631        -2.188235
