19
Iteration:  1374charge 0 multiplicity 1
 O        -3.953969         0.119194        -1.815380
 C        -2.611173         0.150576        -1.341699
 C        -1.857347        -0.910911        -2.280044
 C        -2.201154        -1.211550        -0.795412
 C        -0.991795        -1.323460         0.143826
 C         0.069918        -0.080239        -0.113374
 O         1.239866        -0.193070        -0.348776
 C        -0.664906         1.310799         0.126387
 C        -1.975090         1.409117        -0.950067
 H        -4.533584         0.184295        -1.119529
 H        -2.508662        -1.446114        -3.036113
 H        -0.819353        -0.824299        -2.502296
 H        -3.219173        -1.657022        -0.706728
 H        -1.284464        -1.265548         1.171231
 H        -0.413433        -2.256196        -0.064821
 H        -0.917889         1.250253         1.140876
 H        -0.300700         2.234396        -0.197763
 H        -2.696462         2.080749        -0.568330
 H        -1.655999         2.018309        -1.790976
