19
Iteration:  3952
 O        -3.927067         0.228657        -0.920725
 C        -2.637822        -0.010932        -1.334360
 C        -2.511624        -1.037820        -2.492867
 C        -1.929625        -1.276845        -0.942185
 C        -0.456893        -1.184262        -0.823506
 C        -0.037837        -0.007436        -0.003683
 O         0.773777        -0.004668         0.911046
 C        -0.639451         1.308319        -0.455196
 C        -1.662804         1.237708        -1.564821
 H        -3.982123         0.074733         0.074195
 H        -3.426066        -1.594532        -3.012764
 H        -1.768706        -0.875901        -3.274055
 H        -2.542983        -1.837822        -0.249966
 H         0.088145        -2.013575        -0.309687
 H         0.108335        -1.044523        -1.800658
 H        -1.092453         1.681884         0.477762
 H         0.150206         2.005976        -0.671670
 H        -2.060360         2.087719        -1.939901
 H        -1.088395         0.867442        -2.493595
