19
Iteration:  3893
 O        -3.777055         0.370235        -0.766570
 C        -2.568298         0.036674        -1.485905
 C        -2.581285        -1.098605        -2.375398
 C        -1.847877        -1.338137        -1.063203
 C        -0.340551        -1.177990        -1.022869
 C        -0.067882        -0.001016         0.007054
 O         0.581168        -0.007915         1.065458
 C        -0.757687         1.330165        -0.461782
 C        -1.660126         1.109481        -1.652784
 H        -3.673857         0.008181         0.063301
 H        -3.369418        -1.729386        -2.235654
 H        -1.967351        -1.106090        -3.308340
 H        -2.326125        -1.981179        -0.284820
 H         0.150284        -2.089135        -0.599606
 H         0.129960        -0.979808        -1.994833
 H        -1.188608         1.813585         0.397247
 H         0.058500         1.935925        -0.790328
 H        -2.221106         2.123494        -1.500349
 H        -1.154316         1.163835        -2.622487
