19
Iteration:  1831charge 0 multiplicity 1
 O        -4.068783         0.173677        -1.220462
 C        -2.575078         0.045491        -1.483997
 C        -2.218065        -0.970548        -2.556812
 C        -2.064552        -1.208724        -0.958789
 C        -0.846802        -1.260216        -0.102086
 C         0.042845        -0.015903         0.016628
 O         1.269241        -0.110251         0.334654
 C        -0.683788         1.301441        -0.202469
 C        -1.814304         1.326207        -1.292972
 H        -4.362374         0.467712        -2.025360
 H        -3.053419        -1.564358        -3.064733
 H        -1.468900        -0.861285        -3.288648
 H        -2.805753        -1.967702        -0.685707
 H        -1.129492        -1.724136         0.820038
 H        -0.173963        -2.041384        -0.454450
 H        -1.096122         1.332956         0.800049
 H         0.081592         2.000718        -0.460650
 H        -2.439810         2.238451        -1.078517
 H        -1.400865         1.766760        -2.201760
