19
Iteration:  4756charge 0 multiplicity 1
 O        -4.008499         0.201702        -0.951976
 C        -2.622558         0.020873        -1.290356
 C        -2.317626        -0.684130        -2.626559
 C        -1.941117        -1.253339        -1.259786
 C        -0.530851        -1.396858        -0.565319
 C         0.077919        -0.103477        -0.059014
 O         0.696509         0.059215         0.999147
 C        -0.304283         1.147527        -0.969972
 C        -1.915423         1.303698        -0.912006
 H        -4.474025        -0.551026        -1.216212
 H        -3.216567        -1.137778        -3.098905
 H        -1.612547        -0.262765        -3.229620
 H        -2.582207        -2.129684        -0.953165
 H        -0.819212        -1.901372         0.297375
 H         0.191408        -1.969343        -1.147191
 H         0.134109         2.116415        -0.482141
 H         0.088587         0.948800        -2.032289
 H        -2.236309         1.466561         0.116576
 H        -2.406912         2.119141        -1.566022
