19
Iteration:  3419charge 0 multiplicity 1
 O        -3.961073         0.192087        -1.262885
 C        -2.588760         0.029694        -1.440497
 C        -2.294127        -1.025812        -2.464237
 C        -2.096053        -1.336489        -1.006075
 C        -0.769593        -1.295839        -0.323182
 C         0.013333         0.049918        -0.070510
 O         1.216180         0.004897         0.276030
 C        -0.839072         1.305805        -0.013025
 C        -1.681409         1.312717        -1.335157
 H        -4.150198         0.051134        -0.333405
 H        -3.133975        -1.069302        -3.085414
 H        -1.325061        -0.754159        -2.897550
 H        -2.876506        -1.917999        -0.531548
 H        -1.024723        -1.456129         0.706138
 H        -0.070916        -2.128057        -0.467575
 H        -1.509892         1.157489         0.895280
 H        -0.142011         2.197360         0.112216
 H        -2.304847         2.310884        -1.341275
 H        -1.035255         1.254643        -2.232463
