19
Iteration:  1307charge 0 multiplicity 1
 O        -3.945229         0.157973        -1.747359
 C        -2.587909         0.100206        -1.353265
 C        -1.874350        -0.884004        -2.205748
 C        -2.165041        -1.239724        -0.828549
 C        -0.893473        -1.344531         0.146787
 C        -0.060756        -0.054536        -0.036471
 O         1.124415        -0.118711        -0.405983
 C        -0.776633         1.246766         0.108364
 C        -1.799355         1.374883        -1.055022
 H        -4.534389         0.623350        -1.061580
 H        -2.337242        -1.418165        -2.971726
 H        -0.797442        -0.634297        -2.405209
 H        -3.053578        -1.836035        -0.601754
 H        -1.217583        -1.285093         1.163264
 H        -0.325534        -2.204798        -0.224854
 H        -1.282358         1.170771         1.059885
 H         0.019624         1.937929         0.060295
 H        -2.625187         2.040809        -0.764659
 H        -1.384289         1.859548        -1.938643
