19
Iteration:    73
 O        -4.010312         0.256537        -1.428609
 C        -2.683061         0.100820        -1.418257
 C        -1.839006        -0.874935        -2.252324
 C        -2.105362        -1.225093        -0.800506
 C        -0.883302        -1.344786         0.102338
 C         0.022711        -0.104313        -0.131990
 O         1.231025        -0.131206        -0.000594
 C        -0.798500         1.182362        -0.246371
 C        -1.938573         1.401182        -1.342720
 H        -4.423482        -0.026857        -0.659980
 H        -2.117651        -1.582078        -3.108527
 H        -0.962352        -0.315458        -2.523969
 H        -2.888551        -1.980812        -0.764323
 H        -1.181874        -1.253284         1.183277
 H        -0.284030        -2.254290         0.040840
 H        -1.252605         1.274148         0.786073
 H        -0.089543         2.036530        -0.409754
 H        -2.713597         2.228227        -1.033437
 H        -1.478237         1.522178        -2.371261
