19
Iteration:  1346charge 0 multiplicity 1
 O        -3.912286         0.317760        -1.805701
 C        -2.588795         0.066761        -1.357271
 C        -1.870320        -1.017434        -2.303675
 C        -2.073687        -1.290183        -0.760131
 C        -0.919574        -1.243684         0.107713
 C        -0.064857        -0.066375        -0.120647
 O         1.136845        -0.151078        -0.365959
 C        -0.776869         1.222685         0.081472
 C        -1.885964         1.345324        -0.921946
 H        -4.426823         0.618118        -1.151083
 H        -2.453784        -1.773259        -2.896829
 H        -0.877512        -0.731078        -2.635603
 H        -2.881213        -1.984896        -0.581706
 H        -1.245999        -1.177370         1.216498
 H        -0.317662        -2.160523         0.154894
 H        -1.122244         1.316288         1.198275
 H        -0.285978         2.230389        -0.180977
 H        -2.657429         1.889950        -0.240567
 H        -1.720841         2.172116        -1.674395
