19
Iteration:  4244
 O        -4.017727         0.180073        -1.529165
 C        -2.585393         0.037631        -1.439169
 C        -2.002635        -0.966785        -2.423540
 C        -2.057656        -1.276310        -0.891903
 C        -0.876559        -1.391398         0.058616
 C         0.003760         0.045178        -0.067427
 O         1.166661         0.058113        -0.250808
 C        -0.815098         1.213826         0.115545
 C        -1.810119         1.324984        -1.084329
 H        -4.255651         0.561171        -0.585093
 H        -2.826342        -1.419072        -2.926315
 H        -1.078135        -0.794998        -2.991291
 H        -2.877015        -1.938671        -0.577133
 H        -1.189812        -1.590784         1.079018
 H        -0.056292        -2.104429        -0.102516
 H        -1.197809         1.133956         1.163530
 H        -0.085695         1.979189         0.032043
 H        -2.543483         2.154957        -0.875525
 H        -1.112204         1.640505        -1.771332
