19
Iteration:  4559charge 0 multiplicity 1
 O        -4.158610         0.271929        -1.434301
 C        -2.716801         0.027884        -1.380248
 C        -2.059873        -0.728677        -2.522717
 C        -2.018185        -1.350347        -1.152534
 C        -0.839593        -1.324972        -0.109204
 C         0.144468        -0.043952         0.008338
 O         1.224699         0.022575         0.454693
 C        -0.491980         1.176439        -0.813256
 C        -2.047569         1.206643        -0.637197
 H        -4.573355        -0.273029        -0.725867
 H        -2.593175        -1.088960        -3.266035
 H        -1.125737        -0.376735        -2.950286
 H        -2.486021        -2.309142        -0.981103
 H        -1.354321        -1.437825         0.844142
 H        -0.126125        -2.186698        -0.118044
 H        -0.117027         2.139574        -0.296641
 H        -0.113354         1.193328        -1.814329
 H        -2.231392         1.175750         0.400695
 H        -2.547328         2.178881        -0.929681
