19
Iteration:  4648
 O        -4.117566         0.180731        -1.209274
 C        -2.709894         0.000779        -1.379186
 C        -2.241617        -0.710987        -2.577628
 C        -1.998381        -1.270241        -1.096541
 C        -0.575523        -1.402242        -0.385812
 C         0.068984        -0.048425        -0.036583
 O         1.033002        -0.010786         0.804033
 C        -0.424960         1.192871        -0.745893
 C        -2.007836         1.301990        -0.978664
 H        -4.194843         0.198869        -0.258078
 H        -2.984540        -1.239056        -3.286545
 H        -1.427908        -0.305180        -3.124711
 H        -2.682075        -2.096014        -0.768197
 H        -0.569784        -2.107657         0.397683
 H         0.094226        -1.938636        -1.073151
 H        -0.124495         2.175133        -0.320811
 H         0.117397         1.261803        -1.688583
 H        -2.505299         1.698205        -0.090941
 H        -2.271031         2.144586        -1.668900
