19
Iteration:  4699
 O        -3.971477         0.067112        -1.060116
 C        -2.608143         0.095766        -1.364413
 C        -2.197884        -0.730583        -2.498940
 C        -2.060031        -1.288670        -1.103982
 C        -0.606508        -1.422614        -0.534137
 C         0.054262        -0.076655        -0.138569
 O         0.739384         0.043451         0.880618
 C        -0.397747         1.218209        -0.923162
 C        -1.884758         1.304748        -0.836867
 H        -4.462723         0.935813        -1.354521
 H        -2.866629        -1.193517        -3.077369
 H        -1.351724        -0.426517        -3.057533
 H        -2.764832        -2.087122        -0.933543
 H        -0.421313        -2.142151         0.307303
 H         0.104057        -1.858030        -1.285971
 H         0.010200         2.253232        -0.583389
 H        -0.158648         1.209265        -2.030150
 H        -2.200047         1.374265         0.222854
 H        -2.340142         2.235005        -1.292829
