19
Iteration:  2988
 O        -3.973497         0.225719        -1.641144
 C        -2.598728         0.086560        -1.303676
 C        -1.999546        -0.967509        -2.350841
 C        -2.164345        -1.308826        -0.906859
 C        -0.871531        -1.356921        -0.055452
 C        -0.005225        -0.087772        -0.161854
 O         1.244958         0.064933        -0.031425
 C        -0.672943         1.211080        -0.066355
 C        -1.960644         1.342678        -0.975067
 H        -4.430247         0.647917        -0.802892
 H        -2.720720        -1.492545        -2.878401
 H        -0.984415        -0.894609        -2.927482
 H        -2.992540        -1.898798        -0.591119
 H        -1.103605        -1.529255         1.019044
 H        -0.222174        -2.207059        -0.288138
 H        -0.917543         1.260189         0.996093
 H         0.143223         1.914952        -0.366311
 H        -2.739566         2.024761        -0.523908
 H        -1.659456         1.771806        -1.848987
