19
Iteration:  4007
 O        -3.888459         0.312721        -1.001722
 C        -2.590692        -0.007139        -1.523387
 C        -2.528739        -1.152244        -2.409996
 C        -1.890740        -1.239231        -0.997928
 C        -0.485359        -1.332701        -0.718403
 C        -0.000927         0.062512        -0.032981
 O         0.954009         0.007931         0.783343
 C        -0.851733         1.294490        -0.221130
 C        -1.675308         1.237886        -1.542255
 H        -3.861273         0.829445        -0.225659
 H        -3.577210        -1.585249        -2.523416
 H        -2.081679        -1.064563        -3.450608
 H        -2.557419        -1.914933        -0.435945
 H        -0.113613        -2.045797         0.014258
 H         0.082183        -1.290214        -1.682048
 H        -1.493784         1.318426         0.666345
 H        -0.330763         2.224889        -0.231689
 H        -2.350397         2.010152        -1.544233
 H        -1.047227         1.302923        -2.506685
