19
Iteration:  2947
 O        -4.093048         0.158656        -1.584680
 C        -2.670538         0.057046        -1.430353
 C        -1.987179        -0.925548        -2.304970
 C        -2.014349        -1.138247        -0.852272
 C        -0.862729        -1.231422        -0.094232
 C         0.055947        -0.016326        -0.069195
 O         1.272396        -0.189319        -0.086659
 C        -0.802543         1.219714         0.048795
 C        -1.892920         1.399658        -1.110620
 H        -4.562970         0.139748        -0.800598
 H        -2.559678        -1.531091        -2.832801
 H        -0.913348        -0.805090        -2.651550
 H        -2.754505        -1.887425        -0.581712
 H        -0.932667        -1.626985         0.966241
 H        -0.254185        -1.997624        -0.632936
 H        -1.263119         1.214733         1.133105
 H        -0.197133         2.102970        -0.040950
 H        -2.622661         2.141881        -0.803312
 H        -1.280180         1.636961        -2.073561
