19
Iteration:    80charge 0 multiplicity 1
 O        -4.048638         0.227206        -1.473080
 C        -2.654115         0.102024        -1.344760
 C        -1.844604        -0.883154        -2.245760
 C        -2.124710        -1.217504        -0.807914
 C        -0.903931        -1.352529         0.065899
 C         0.004629        -0.126233        -0.091860
 O         1.214342        -0.091254        -0.017188
 C        -0.735010         1.235504        -0.274785
 C        -1.900231         1.394222        -1.336560
 H        -4.432414        -0.000616        -0.695318
 H        -2.327013        -1.690816        -2.855044
 H        -0.793025        -0.434878        -2.436814
 H        -2.895687        -2.045862        -0.757698
 H        -1.155218        -1.386528         1.119379
 H        -0.318820        -2.308788        -0.104761
 H        -1.337062         1.232802         0.629173
 H         0.008552         2.026932        -0.229583
 H        -2.518154         2.112604        -0.863511
 H        -1.549711         1.771211        -2.342120
