19
Iteration:  1656
 O        -3.888823         0.346562        -1.499021
 C        -2.562741         0.047057        -1.409241
 C        -2.139937        -1.064273        -2.532298
 C        -2.165551        -1.218515        -0.839094
 C        -0.852707        -1.297277        -0.031018
 C        -0.017541        -0.034911         0.002740
 O         1.239201         0.015259        -0.114524
 C        -0.866099         1.184333         0.107570
 C        -1.699320         1.276852        -1.145935
 H        -4.484293        -0.496759        -1.327406
 H        -3.034227        -1.472707        -3.018997
 H        -1.167748        -0.725303        -2.905187
 H        -2.987564        -1.902247        -0.621345
 H        -1.073275        -1.348455         1.091982
 H        -0.188085        -2.158147        -0.235252
 H        -1.633610         1.023438         0.972485
 H        -0.386322         2.181762         0.261120
 H        -2.498676         2.119856        -1.024152
 H        -1.057320         1.556329        -2.018466
