19
Iteration:  3350
 O        -3.975666         0.234067        -1.465403
 C        -2.639947         0.061307        -1.444230
 C        -2.064192        -0.960939        -2.283129
 C        -2.149128        -1.243783        -0.814728
 C        -0.752388        -1.321929        -0.218498
 C         0.013840        -0.072361        -0.189490
 O         1.175684         0.043561         0.075717
 C        -0.803409         1.209700         0.018348
 C        -1.807979         1.285610        -1.215886
 H        -4.240476         0.457740        -0.595128
 H        -2.743108        -1.413799        -3.011967
 H        -1.154340        -0.576610        -2.764020
 H        -2.821381        -2.075981        -0.510092
 H        -0.732061        -1.647471         0.860543
 H        -0.196925        -2.146347        -0.677489
 H        -1.643991         1.032326         0.798251
 H        -0.107060         2.031532         0.161210
 H        -2.514780         2.133675        -1.035547
 H        -1.170142         1.552456        -2.025549
