19
Iteration:  1168
 O        -3.952689         0.340055        -1.501933
 C        -2.647742         0.062930        -1.502474
 C        -2.179916        -1.064158        -2.310443
 C        -2.120435        -1.282128        -0.893635
 C        -0.814363        -1.403685        -0.189824
 C         0.029411         0.003020        -0.047288
 O         1.268827         0.027708         0.142141
 C        -0.831469         1.232870        -0.009311
 C        -1.750872         1.315038        -1.237554
 H        -4.333881         0.587153        -0.601088
 H        -2.943476        -1.582651        -2.925347
 H        -1.268127        -1.131129        -2.901993
 H        -2.906034        -1.887840        -0.426399
 H        -0.872100        -1.776851         0.833039
 H        -0.369387        -2.101983        -0.819286
 H        -1.432142         0.981234         0.870098
 H        -0.260498         2.126058         0.240010
 H        -2.315566         2.180278        -0.928131
 H        -1.129503         1.639270        -2.103800
