19
Iteration:  4784charge 0 multiplicity 1
 O        -3.932988         0.225890        -0.890768
 C        -2.632961         0.041803        -1.421439
 C        -2.244319        -0.792857        -2.617493
 C        -1.981657        -1.289117        -1.209015
 C        -0.609927        -1.320097        -0.609209
 C        -0.072401        -0.071257        -0.021432
 O         0.729388        -0.016401         0.938333
 C        -0.323595         1.203253        -0.879780
 C        -1.915067         1.330740        -0.986195
 H        -4.145851        -0.604814        -0.484267
 H        -3.044763        -1.294173        -3.120113
 H        -1.420534        -0.304724        -3.312631
 H        -2.575136        -2.162179        -0.986463
 H        -0.645894        -2.107959         0.235798
 H         0.150967        -1.656899        -1.356124
 H         0.079238         2.046982        -0.336157
 H         0.277673         1.136040        -1.751775
 H        -2.304299         1.473283         0.062743
 H        -2.332702         2.177378        -1.535403
