19
Iteration:  3678
 O        -3.849681         0.280204        -0.892336
 C        -2.608191         0.081278        -1.488615
 C        -2.572812        -1.164585        -2.519667
 C        -2.010356        -1.217699        -1.042655
 C        -0.480870        -1.206730        -0.740145
 C        -0.063697         0.003817         0.042601
 O         0.883578         0.064659         0.831829
 C        -0.776014         1.305954        -0.334674
 C        -1.556006         1.127423        -1.533797
 H        -3.765364         0.187109         0.007597
 H        -3.568635        -1.679723        -2.674200
 H        -1.870571        -1.087362        -3.278143
 H        -2.594556        -1.907955        -0.396428
 H         0.005512        -2.163376        -0.339920
 H        -0.027912        -1.018206        -1.695738
 H        -1.351032         1.199512         0.612207
 H        -0.174313         2.239592        -0.229909
 H        -2.095939         2.025313        -1.951067
 H        -0.856292         0.820799        -2.443935
