19
Iteration:  2281
 O        -3.961404         0.393608        -1.615304
 C        -2.573129         0.049827        -1.519014
 C        -2.024236        -1.210232        -2.279668
 C        -2.121789        -1.177585        -0.744568
 C        -0.739126        -1.318736        -0.125631
 C         0.015223        -0.032832         0.033342
 O         1.159391        -0.052704        -0.268914
 C        -0.938826         1.266652         0.213124
 C        -1.805233         1.360275        -1.063713
 H        -4.383340        -0.412403        -1.841509
 H        -2.799922        -1.606905        -2.912389
 H        -0.967537        -1.070537        -2.671574
 H        -2.998291        -1.622210        -0.298285
 H        -0.878777        -1.416539         0.966895
 H        -0.134207        -2.077192        -0.678304
 H        -1.488366         1.066002         1.063297
 H        -0.349829         2.199591         0.340003
 H        -2.513996         2.122534        -0.956773
 H        -0.969447         1.401914        -1.843574
