19
Iteration:  2155charge 0 multiplicity 1
 O        -4.051703         0.232945        -1.264343
 C        -2.684255         0.026004        -1.497574
 C        -1.985881        -0.930925        -2.473958
 C        -2.059940        -1.287045        -0.941229
 C        -0.827833        -1.297828        -0.007211
 C         0.003186        -0.051635         0.047492
 O         1.265307        -0.104670         0.164459
 C        -0.748771         1.251330        -0.229570
 C        -1.883213         1.326235        -1.257561
 H        -4.442336         0.899445        -1.773227
 H        -2.544055        -1.494530        -3.218375
 H        -1.129050        -0.621300        -3.056589
 H        -2.872224        -2.012932        -0.744668
 H        -1.257392        -1.385699         0.994297
 H        -0.068036        -2.076204        -0.111946
 H        -1.062828         1.601090         0.698060
 H        -0.001362         1.998108        -0.482622
 H        -2.656993         2.084745        -0.997695
 H        -1.702200         1.789767        -2.180966
