19
Iteration:  2002charge 0 multiplicity 1
 O        -3.807635         0.317578        -1.178671
 C        -2.476080         0.072523        -1.506532
 C        -2.108714        -1.096952        -2.437182
 C        -2.059711        -1.283824        -0.925623
 C        -0.854198        -1.350034        -0.094896
 C        -0.114492         0.050040        -0.055948
 O         1.131446        -0.031966        -0.059440
 C        -1.057738         1.245122         0.130717
 C        -1.643226         1.325254        -1.337960
 H        -4.310851         0.655133        -1.857947
 H        -2.906284        -1.723846        -2.884485
 H        -1.200147        -1.007650        -3.029339
 H        -2.985095        -1.717548        -0.532446
 H        -1.063982        -1.584345         0.954180
 H        -0.165870        -2.176940        -0.354120
 H        -1.957070         1.192412         0.831491
 H        -0.423370         2.168996         0.265244
 H        -2.254936         2.191733        -1.579485
 H        -0.699513         1.168959        -2.067846
