19
Iteration:  2423charge 0 multiplicity 1
 O        -4.152985         0.374290        -1.524652
 C        -2.726858        -0.002213        -1.482208
 C        -2.051166        -1.058045        -2.361612
 C        -2.062662        -1.209389        -0.824543
 C        -0.711914        -1.287387        -0.068650
 C         0.053642        -0.012002        -0.087047
 O         1.275124        -0.107988         0.135575
 C        -0.731572         1.241623        -0.034795
 C        -1.885511         1.363706        -1.206213
 H        -4.450897        -0.477321        -1.332858
 H        -2.640769        -1.751599        -3.090672
 H        -1.072308        -0.734139        -2.702000
 H        -2.814496        -2.022192        -0.671958
 H        -0.644024        -1.667224         0.971292
 H        -0.123433        -2.031683        -0.698017
 H        -1.219578         1.347720         0.927873
 H        -0.055968         2.116526        -0.262597
 H        -2.687331         1.937126        -0.822601
 H        -1.417877         1.872434        -2.111508
