19
Iteration:  2408
 O        -3.997465         0.331390        -1.500617
 C        -2.635775         0.059054        -1.463992
 C        -2.043367        -0.937954        -2.359824
 C        -2.136488        -1.253679        -0.828669
 C        -0.766905        -1.351920        -0.079701
 C         0.045282        -0.079916        -0.017826
 O         1.305151        -0.008906         0.067450
 C        -0.834812         1.217403        -0.134145
 C        -1.915401         1.292893        -1.171954
 H        -4.717975        -0.343034        -1.218491
 H        -2.725074        -1.558507        -2.925801
 H        -1.099577        -0.701038        -2.883796
 H        -2.836826        -2.039057        -0.495789
 H        -1.123304        -1.449296         0.944454
 H        -0.169096        -2.203202        -0.391549
 H        -1.225978         1.369367         0.912415
 H        -0.121317         2.069565        -0.173289
 H        -2.559142         2.147083        -0.913232
 H        -1.450953         1.483331        -2.054854
