19
Iteration:  2772
 O        -4.022461         0.144246        -1.414205
 C        -2.632038         0.084965        -1.370587
 C        -2.200199        -0.950953        -2.457893
 C        -2.128810        -1.234105        -0.851314
 C        -0.718468        -1.442842        -0.178264
 C         0.017536        -0.056232        -0.020622
 O         1.202935         0.033676         0.159746
 C        -0.835579         1.259647        -0.060169
 C        -1.650252         1.394235        -1.265300
 H        -4.348216         0.711187        -0.625475
 H        -3.071021        -1.431428        -3.088284
 H        -1.442958        -0.609076        -3.073345
 H        -2.943068        -1.930183        -0.623402
 H        -0.771818        -1.929486         0.817247
 H        -0.172693        -2.146249        -0.861960
 H        -1.531810         1.253062         0.790978
 H        -0.114765         2.063600         0.079538
 H        -2.225169         2.374437        -1.384314
 H        -1.052596         1.417172        -2.303576
