19
Iteration:  2394charge 0 multiplicity 1
 O        -3.994287         0.314629        -1.477688
 C        -2.570086         0.042041        -1.305356
 C        -2.076241        -0.954869        -2.373528
 C        -2.058327        -1.315881        -0.946064
 C        -0.898198        -1.364580        -0.004849
 C         0.012614        -0.031783        -0.081683
 O         1.206983         0.040002         0.011567
 C        -0.775174         1.211345        -0.076622
 C        -1.791117         1.326337        -1.222324
 H        -4.360537        -0.535443        -1.245987
 H        -2.779982        -1.275088        -3.060828
 H        -1.067938        -0.841482        -2.772362
 H        -2.882304        -1.917030        -0.598393
 H        -1.179136        -1.535097         1.065052
 H        -0.275104        -2.239429        -0.159841
 H        -1.415776         1.111340         0.820466
 H        -0.118438         2.037110        -0.074519
 H        -2.622857         2.081972        -0.984010
 H        -1.379629         1.774563        -2.210817
