19
Iteration:   814
 O        -3.756222         0.403808        -0.867461
 C        -2.520414        -0.000230        -1.432224
 C        -2.641048        -1.181528        -2.311551
 C        -1.862515        -1.316263        -0.950398
 C        -0.328317        -1.178706        -0.972737
 C        -0.074088        -0.028731        -0.027396
 O         0.450123        -0.137243         1.080282
 C        -0.597712         1.402081        -0.496805
 C        -1.629918         1.201960        -1.684972
 H        -3.610471         0.786876        -0.067573
 H        -3.601132        -1.638236        -2.435170
 H        -2.043475        -1.210657        -3.266940
 H        -2.330370        -1.794543        -0.119261
 H         0.322688        -2.010859        -0.779262
 H        -0.100210        -0.999785        -2.040777
 H        -1.184663         1.904003         0.259353
 H         0.172152         2.059337        -0.859050
 H        -2.292772         2.113934        -1.660794
 H        -1.166419         1.016365        -2.670880
