19
Iteration:  2847
 O        -3.997352         0.281006        -1.536820
 C        -2.563841         0.052531        -1.407819
 C        -2.196410        -0.969486        -2.359599
 C        -2.098966        -1.191503        -0.778139
 C        -0.724945        -1.389651        -0.135277
 C        -0.026790        -0.072404        -0.110053
 O         1.137365         0.129510        -0.051093
 C        -0.898466         1.119617         0.152835
 C        -1.613280         1.307845        -1.229530
 H        -4.448271         0.425935        -0.675778
 H        -2.937648        -1.450655        -3.114416
 H        -1.266876        -0.866377        -2.774542
 H        -2.792703        -1.937690        -0.468083
 H        -0.858355        -1.852046         0.897233
 H        -0.107576        -2.213396        -0.532756
 H        -1.626509         0.882882         0.980441
 H        -0.139283         1.944638         0.218070
 H        -2.284013         2.225566        -1.408300
 H        -0.869842         1.278707        -2.111984
