19
Iteration:   319
 O        -4.016041         0.300513        -1.723397
 C        -2.568576         0.053781        -1.417871
 C        -2.090327        -1.107246        -2.239677
 C        -2.128991        -1.204431        -0.696346
 C        -0.817607        -1.317498         0.062145
 C         0.051255        -0.048739        -0.103340
 O         1.270412        -0.032258        -0.178262
 C        -0.801429         1.233923        -0.004359
 C        -1.821903         1.310667        -1.127284
 H        -4.251310         1.183723        -1.228123
 H        -2.931300        -1.488088        -2.757125
 H        -1.260088        -1.394384        -2.954144
 H        -2.869580        -1.915407        -0.344697
 H        -1.136790        -1.301777         1.107534
 H        -0.168384        -2.207321        -0.044588
 H        -1.438492         1.061404         0.912517
 H        -0.160249         2.133720         0.058846
 H        -2.693908         1.978505        -0.852846
 H        -1.582289         1.888594        -1.968878
