19
Iteration:  3589
 O        -4.013347         0.248153        -1.137474
 C        -2.594030         0.007365        -1.539123
 C        -2.443391        -1.080453        -2.441690
 C        -2.021988        -1.235814        -0.982473
 C        -0.580213        -1.215169        -0.568686
 C        -0.013782         0.009717         0.150656
 O         1.122682         0.013391         0.557575
 C        -0.782867         1.250962        -0.166282
 C        -1.662974         1.213097        -1.461403
 H        -4.052736         0.291067        -0.223729
 H        -3.362753        -1.536254        -2.597738
 H        -1.797255        -0.958046        -3.348957
 H        -2.719040        -1.753573        -0.351064
 H        -0.287733        -2.010205         0.149167
 H         0.110547        -1.444030        -1.369931
 H        -1.580513         1.484674         0.518928
 H        -0.255879         2.149460        -0.318679
 H        -2.313633         2.034229        -1.530525
 H        -0.864569         1.439664        -2.316917
