19
Iteration:  4862charge 0 multiplicity 1
 O        -3.995341         0.171445        -1.103480
 C        -2.625527         0.072317        -1.333591
 C        -2.268446        -0.812651        -2.535151
 C        -1.995821        -1.288694        -1.197153
 C        -0.608196        -1.306934        -0.617473
 C         0.038933        -0.049126        -0.082406
 O         0.817921        -0.022457         0.904459
 C        -0.408108         1.178811        -0.791641
 C        -1.918688         1.302405        -0.851873
 H        -4.274430         1.000107        -0.827162
 H        -3.063516        -1.411551        -3.112636
 H        -1.383519        -0.638050        -3.124563
 H        -2.628216        -2.152016        -0.818460
 H        -0.438154        -2.138195         0.107053
 H         0.071618        -1.583241        -1.447922
 H         0.041776         2.184281        -0.690393
 H        -0.055940         0.934007        -1.766493
 H        -2.300029         1.278112         0.248187
 H        -2.275804         2.265387        -1.233021
