19
Iteration:  3247charge 0 multiplicity 1
 O        -3.997958         0.125421        -1.609999
 C        -2.568897         0.110220        -1.413898
 C        -1.833422        -0.915320        -2.289498
 C        -2.074876        -1.192620        -0.880804
 C        -0.807877        -1.292875         0.120996
 C        -0.087883        -0.036805         0.013462
 O         1.102695        -0.146050        -0.368830
 C        -0.815200         1.189360         0.100391
 C        -1.877407         1.442813        -1.108477
 H        -4.439100         0.371251        -0.704435
 H        -2.710363        -1.461662        -2.823505
 H        -0.905289        -0.633505        -2.685558
 H        -2.857500        -1.897127        -0.689934
 H        -1.082277        -1.641951         1.160018
 H        -0.151815        -2.090535        -0.301319
 H        -1.382260         1.280238         1.094760
 H         0.017615         1.965424         0.055334
 H        -2.589195         2.096046        -0.790068
 H        -1.351771         1.956796        -1.982931
