19
Iteration:  4767
 O        -4.004930         0.216815        -0.893516
 C        -2.662782         0.064689        -1.401291
 C        -2.316408        -0.734643        -2.665443
 C        -1.943443        -1.308520        -1.294095
 C        -0.550791        -1.367836        -0.517908
 C         0.052751        -0.008448        -0.084120
 O         0.673717         0.032814         0.949408
 C        -0.362656         1.157661        -0.849040
 C        -1.821282         1.266179        -0.897373
 H        -4.434901        -0.654456        -0.895658
 H        -3.114421        -1.281849        -3.212098
 H        -1.562718        -0.496330        -3.312714
 H        -2.655748        -2.101409        -0.939940
 H        -0.561779        -1.992951         0.327389
 H         0.213296        -1.850762        -1.148793
 H         0.262727         2.077289        -0.545274
 H        -0.044711         1.021279        -1.947555
 H        -2.237863         1.540949         0.056264
 H        -1.888598         2.201841        -1.518758
