19
Iteration:  1010charge 0 multiplicity 1
 O        -3.996862         0.365662        -1.209922
 C        -2.543189         0.079713        -1.505749
 C        -2.539390        -1.247189        -2.402011
 C        -1.998417        -1.106915        -0.913334
 C        -0.490885        -1.280918        -0.625448
 C         0.027674        -0.073248         0.008792
 O         1.078317        -0.034354         0.686670
 C        -0.872670         1.250881        -0.102169
 C        -1.641060         1.260329        -1.570767
 H        -3.866099         0.729257        -0.300708
 H        -3.550614        -1.669841        -2.524438
 H        -1.773367        -1.223982        -3.162198
 H        -2.770763        -1.514417        -0.211534
 H        -0.317858        -2.182978        -0.033416
 H         0.130873        -1.724282        -1.414591
 H        -1.666547         1.236718         0.668082
 H        -0.292747         2.193614        -0.028039
 H        -2.134072         2.276359        -1.620207
 H        -0.932082         1.268143        -2.449901
