19
Iteration:   784charge 0 multiplicity 1
 O        -3.743947         0.435528        -0.756145
 C        -2.586913         0.068323        -1.446050
 C        -2.483305        -1.199238        -2.335893
 C        -1.860415        -1.265689        -0.999352
 C        -0.368197        -1.259574        -0.904917
 C        -0.097959        -0.015900        -0.094738
 O         0.448225        -0.135452         1.004029
 C        -0.699564         1.382516        -0.504658
 C        -1.588501         1.221734        -1.707434
 H        -3.564896         0.531646         0.277476
 H        -3.397342        -1.825143        -2.452216
 H        -1.978791        -1.327591        -3.351035
 H        -2.364868        -1.884959        -0.260665
 H         0.170586        -1.941699        -0.206775
 H        -0.062454        -1.284569        -1.962141
 H        -1.336362         1.798659         0.325919
 H         0.018366         2.180664        -0.689363
 H        -2.039626         2.151875        -1.881390
 H        -1.076500         0.895367        -2.603035
