19
Iteration:  3301
 O        -4.013632         0.259217        -1.642055
 C        -2.607242         0.014366        -1.430415
 C        -2.103236        -1.017565        -2.383239
 C        -2.105600        -1.269100        -0.818862
 C        -0.748617        -1.263605        -0.037250
 C        -0.007459         0.043503        -0.049215
 O         1.237147        -0.045155        -0.188399
 C        -0.851133         1.198542         0.135747
 C        -1.796932         1.315291        -1.073980
 H        -4.271394         0.595565        -0.717549
 H        -2.708876        -1.740093        -3.023668
 H        -1.142115        -0.801962        -2.811565
 H        -2.832398        -1.871963        -0.316021
 H        -1.062912        -1.516502         1.003826
 H        -0.103968        -2.124410        -0.315904
 H        -1.393596         1.154290         1.061447
 H        -0.141786         2.071948         0.109934
 H        -2.566637         1.979829        -0.731837
 H        -1.270822         1.849255        -1.905593
