19
Iteration:  3042
 O        -4.072716         0.032785        -1.618407
 C        -2.621585         0.134938        -1.392252
 C        -1.964646        -0.818245        -2.335218
 C        -2.064473        -1.198918        -0.863146
 C        -0.874112        -1.236130         0.021038
 C         0.058946        -0.142779        -0.108885
 O         1.246514        -0.188176        -0.084891
 C        -0.728985         1.256357        -0.095373
 C        -1.947397         1.446150        -1.046451
 H        -4.572030         0.144326        -0.718141
 H        -2.477382        -1.352400        -3.075057
 H        -0.872765        -0.432517        -2.641394
 H        -2.784038        -1.911302        -0.513725
 H        -1.225605        -1.213558         1.055074
 H        -0.315234        -2.157644        -0.076053
 H        -1.036370         1.422226         0.906890
 H         0.069592         2.011526        -0.337225
 H        -2.754761         1.947737        -0.420572
 H        -1.665753         1.997979        -1.901929
