19
Iteration:  1047
 O        -3.977578         0.425980        -1.238092
 C        -2.600987        -0.020017        -1.414158
 C        -2.401958        -1.035267        -2.466104
 C        -2.089173        -1.320225        -0.937968
 C        -0.625639        -1.324585        -0.467829
 C        -0.038158         0.041203         0.080940
 O         1.146392         0.017655         0.502038
 C        -0.840414         1.297153        -0.109693
 C        -1.569198         1.117316        -1.461380
 H        -4.215146         0.517975        -0.333943
 H        -3.313927        -1.455915        -2.951145
 H        -1.611001        -0.884526        -3.262390
 H        -2.795043        -1.973659        -0.460398
 H        -0.424967        -2.110404         0.296514
 H        -0.023727        -1.420803        -1.374415
 H        -1.648086         1.617202         0.526201
 H        -0.045309         2.018302        -0.033786
 H        -2.188357         1.965316        -1.712796
 H        -1.012339         0.846326        -2.378742
