19
Iteration:  3786
 O        -3.909422         0.245988        -0.824462
 C        -2.578275         0.045623        -1.379521
 C        -2.582837        -1.086810        -2.402628
 C        -1.809255        -1.280471        -1.008071
 C        -0.332440        -1.152818        -0.949265
 C        -0.033165         0.091523        -0.032022
 O         0.530676        -0.172486         1.033730
 C        -0.610568         1.455476        -0.564548
 C        -1.664859         1.135121        -1.572676
 H        -3.826863         0.280053         0.084753
 H        -3.528696        -1.516234        -2.696070
 H        -1.890074        -1.147832        -3.255212
 H        -2.146633        -1.841843        -0.085909
 H         0.172536        -1.974717        -0.315607
 H         0.087293        -1.176241        -1.985081
 H        -1.060537         2.014596         0.307237
 H         0.273448         1.999977        -0.917460
 H        -2.086135         2.028534        -1.726019
 H        -1.183662         0.941919        -2.605542
