19
Iteration:   161charge 0 multiplicity 1
 O        -4.008465         0.324139        -1.698616
 C        -2.647848         0.047394        -1.347326
 C        -1.975616        -1.043392        -2.189669
 C        -2.150272        -1.187904        -0.701380
 C        -0.846925        -1.399145         0.002888
 C         0.071856        -0.153313        -0.125114
 O         1.284266         0.036104        -0.079555
 C        -0.785854         1.195539        -0.143457
 C        -1.930172         1.293991        -1.164143
 H        -4.287748         1.014062        -1.131697
 H        -2.604594        -1.538518        -2.842222
 H        -1.054082        -0.784221        -2.641035
 H        -2.811547        -1.929727        -0.352979
 H        -1.100541        -1.308233         1.079126
 H        -0.432525        -2.366561        -0.184782
 H        -1.114852         1.419999         0.899455
 H        -0.077893         2.028030        -0.349988
 H        -2.656919         2.039945        -0.729581
 H        -1.652134         1.897440        -2.092221
