19
Iteration:  1603charge 0 multiplicity 1
 O        -4.027337         0.290414        -1.497395
 C        -2.575697         0.100875        -1.421610
 C        -1.921738        -0.828006        -2.316658
 C        -2.083413        -1.258183        -0.854417
 C        -0.865207        -1.377697        -0.010663
 C        -0.027855        -0.125665        -0.034611
 O         1.173204        -0.075428        -0.048168
 C        -0.774272         1.163277        -0.122625
 C        -1.886247         1.359159        -1.212225
 H        -4.633126        -0.049381        -0.726589
 H        -2.484961        -1.343888        -3.089481
 H        -0.851465        -0.661319        -2.549775
 H        -2.861366        -1.964285        -0.653143
 H        -1.083187        -1.581089         1.082411
 H        -0.072594        -2.090287        -0.304342
 H        -1.293018         1.301712         0.806989
 H        -0.089101         1.953987        -0.001689
 H        -2.550301         2.153553        -0.862892
 H        -1.365110         1.715384        -2.109937
