19
Iteration:  4363charge 0 multiplicity 1
 O        -4.032897         0.217654        -1.707727
 C        -2.625649         0.057422        -1.444571
 C        -1.782388        -0.844117        -2.274747
 C        -2.045915        -1.409890        -0.846920
 C        -0.841086        -1.272249         0.221193
 C         0.042696        -0.018793        -0.098188
 O         1.126928        -0.118093        -0.525942
 C        -0.812387         1.228878         0.106178
 C        -1.966718         1.365432        -0.866849
 H        -4.509641         0.589146        -0.939938
 H        -2.195503        -1.336646        -3.184302
 H        -0.836575        -0.464218        -2.417409
 H        -2.812273        -2.218531        -0.771423
 H        -1.378933        -1.128072         1.116935
 H        -0.147852        -2.113853         0.468006
 H        -1.252850         1.069775         1.090587
 H        -0.265408         2.125577         0.083455
 H        -2.721959         2.093756        -0.364067
 H        -1.567556         1.780707        -1.730067
