19
Iteration:   666
 O        -4.019454         0.345759        -1.121434
 C        -2.618874         0.067642        -1.532844
 C        -2.597220        -1.176324        -2.326902
 C        -1.946185        -1.274771        -0.982173
 C        -0.455961        -1.224676        -0.758733
 C         0.006754        -0.027523         0.066671
 O         0.913725        -0.042517         0.915271
 C        -0.642997         1.327737        -0.376338
 C        -1.609161         1.218657        -1.577261
 H        -4.131697         0.449417        -0.050025
 H        -3.591144        -1.575030        -2.302598
 H        -2.198940        -1.369232        -3.368529
 H        -2.423036        -1.803160        -0.183904
 H        -0.134643        -2.179574        -0.254588
 H         0.196710        -1.186472        -1.667656
 H        -1.141778         1.597720         0.588853
 H         0.220024         2.021358        -0.456593
 H        -2.269541         2.087650        -1.404492
 H        -1.043196         1.456688        -2.519565
