19
Iteration:  3829
 O        -3.755104         0.315406        -0.705776
 C        -2.506470         0.012724        -1.419336
 C        -2.642030        -1.141923        -2.405703
 C        -1.830382        -1.341325        -1.158649
 C        -0.251523        -1.184267        -0.950866
 C        -0.138302        -0.012956         0.008537
 O         0.510249        -0.010487         1.071185
 C        -0.686464         1.278868        -0.496192
 C        -1.685575         1.228239        -1.684645
 H        -3.487960         0.713588         0.100894
 H        -3.624284        -1.495927        -2.515668
 H        -2.048139        -1.170572        -3.353612
 H        -2.368796        -1.609376        -0.221367
 H         0.202253        -2.186375        -0.682777
 H         0.324484        -0.840156        -1.836176
 H        -1.183017         1.743328         0.371026
 H         0.047673         1.989879        -0.768497
 H        -2.434817         1.944279        -1.718580
 H        -1.200690         1.234658        -2.687785
