19
Iteration:   416charge 0 multiplicity 1
 O        -3.930462         0.459413        -1.315660
 C        -2.625309        -0.006411        -1.433267
 C        -2.172334        -1.111419        -2.410707
 C        -2.056833        -1.334283        -0.924461
 C        -0.872879        -1.272490        -0.043434
 C        -0.016621         0.017646         0.003224
 O         1.196989        -0.012631         0.017376
 C        -0.788308         1.264258        -0.017620
 C        -1.717846         1.263271        -1.344898
 H        -4.396938        -0.261531        -1.514913
 H        -2.805246        -1.852139        -2.891073
 H        -1.254978        -0.912195        -3.040009
 H        -2.809250        -2.049910        -0.665286
 H        -1.305892        -1.439019         1.000944
 H        -0.249882        -2.147881        -0.319658
 H        -1.547808         1.182528         0.839587
 H        -0.131518         2.139734         0.163989
 H        -2.346381         2.203021        -1.357342
 H        -0.972905         1.432770        -2.186240
