19
Iteration:  3088charge 0 multiplicity 1
 O        -4.019949         0.269367        -1.610514
 C        -2.643854         0.095965        -1.415230
 C        -1.849574        -0.885830        -2.313243
 C        -2.032927        -1.337653        -0.887923
 C        -0.788357        -1.286340         0.095949
 C        -0.055908        -0.006206        -0.041002
 O         1.167080        -0.234639        -0.206593
 C        -0.692878         1.308183        -0.070691
 C        -2.050115         1.359949        -1.015533
 H        -4.473421        -0.183447        -0.876782
 H        -2.413224        -1.495781        -3.139840
 H        -0.966813        -0.492505        -2.720128
 H        -2.704786        -2.260839        -0.797448
 H        -1.257512        -1.236864         1.081203
 H        -0.088884        -2.130307         0.136133
 H        -0.996697         1.562566         0.935248
 H        -0.071322         2.085974        -0.438467
 H        -2.736178         1.933849        -0.331377
 H        -1.843516         1.959309        -1.821012
