19
Iteration:  3421
 O        -3.972743         0.199873        -1.253633
 C        -2.585672         0.017866        -1.445326
 C        -2.290111        -1.007471        -2.457275
 C        -2.098651        -1.338106        -0.982821
 C        -0.767579        -1.304102        -0.340544
 C         0.009946         0.052083        -0.059770
 O         1.210219         0.004240         0.276306
 C        -0.829723         1.307114        -0.010213
 C        -1.693618         1.316231        -1.352278
 H        -4.140348         0.031101        -0.367070
 H        -3.109495        -1.129251        -3.118147
 H        -1.260176        -0.768588        -2.932907
 H        -2.874870        -1.979683        -0.542154
 H        -1.000435        -1.454361         0.701023
 H        -0.065463        -2.132828        -0.475497
 H        -1.466359         1.113463         0.826003
 H        -0.187972         2.210290         0.118551
 H        -2.276877         2.287397        -1.346762
 H        -0.914785         1.312034        -2.242990
