19
Iteration:  3171
 O        -4.012337         0.201550        -1.762089
 C        -2.564701         0.083503        -1.395268
 C        -1.794236        -0.834570        -2.253664
 C        -2.058390        -1.302320        -0.746184
 C        -0.839385        -1.317091         0.163426
 C        -0.025332        -0.068050        -0.040388
 O         1.149514        -0.214457        -0.411481
 C        -0.833191         1.239288        -0.020592
 C        -2.020352         1.446431        -0.944621
 H        -4.386705         0.530380        -0.988580
 H        -2.367648        -1.417164        -3.080215
 H        -0.719828        -0.650540        -2.349868
 H        -2.692403        -2.048503        -0.340655
 H        -1.029784        -1.552649         1.258069
 H        -0.152318        -2.084407        -0.303936
 H        -1.143404         1.465391         1.075920
 H        -0.122975         2.114917        -0.244462
 H        -2.748094         1.986360        -0.370421
 H        -1.769333         2.164745        -1.860217
