19
Iteration:  1216
 O        -4.011481         0.245846        -1.568936
 C        -2.555465         0.023750        -1.361615
 C        -1.991982        -0.973512        -2.350490
 C        -2.200772        -1.263818        -0.857752
 C        -0.890504        -1.303945        -0.034102
 C         0.024289        -0.027450        -0.003679
 O         1.240133        -0.065570        -0.116018
 C        -0.863443         1.246376         0.048705
 C        -1.744837         1.365296        -1.195193
 H        -4.451057         0.698039        -0.724888
 H        -2.734644        -1.505906        -2.964462
 H        -1.066073        -0.871383        -2.885776
 H        -2.904814        -2.077143        -0.757082
 H        -1.086177        -1.567253         0.998703
 H        -0.167178        -2.026341        -0.496192
 H        -1.534000         1.179596         0.877080
 H        -0.086525         1.992642         0.294524
 H        -2.440861         2.242499        -1.118777
 H        -1.074947         1.528122        -2.024813
