19
Iteration:   729charge 0 multiplicity 1
 O        -3.830655         0.401285        -0.775518
 C        -2.614726        -0.016256        -1.418150
 C        -2.663310        -1.166100        -2.517894
 C        -1.924386        -1.368934        -1.180558
 C        -0.433067        -1.220661        -0.793308
 C        -0.068383        -0.065068         0.096082
 O         0.686618        -0.003723         1.062168
 C        -0.627491         1.446222        -0.486910
 C        -1.575216         1.144252        -1.689303
 H        -3.547029         0.683008         0.228438
 H        -3.558243        -1.738928        -2.648408
 H        -2.033241        -0.851066        -3.434876
 H        -2.399395        -2.059956        -0.536376
 H        -0.014437        -2.043575        -0.204460
 H         0.140143        -1.084174        -1.737961
 H        -1.077028         2.054197         0.347904
 H         0.206737         2.048904        -0.860650
 H        -2.139722         1.952110        -2.055615
 H        -0.975346         0.915940        -2.552345
