19
Iteration:   327
 O        -4.021254         0.371402        -1.688758
 C        -2.623909         0.005619        -1.400272
 C        -2.055118        -1.158267        -2.237760
 C        -2.158494        -1.283011        -0.788677
 C        -0.813287        -1.297615         0.069931
 C         0.046657        -0.014836        -0.026158
 O         1.257535        -0.028343        -0.194328
 C        -0.780853         1.258262        -0.023248
 C        -1.828675         1.304190        -1.126921
 H        -4.057019         1.271008        -1.382313
 H        -2.990627        -1.589703        -2.617072
 H        -1.059017        -1.066393        -2.716083
 H        -2.808740        -2.144098        -0.446298
 H        -1.134602        -1.455676         1.132984
 H        -0.166056        -2.080927        -0.317390
 H        -1.300403         1.242471         0.991218
 H        -0.281341         2.219643        -0.030399
 H        -2.535447         2.045476        -0.738661
 H        -1.441775         1.574246        -2.166346
