19
Iteration:  3349
 O        -3.975356         0.228455        -1.468062
 C        -2.633446         0.065480        -1.447617
 C        -2.078217        -0.972491        -2.284590
 C        -2.151515        -1.247417        -0.819020
 C        -0.750580        -1.315358        -0.215733
 C         0.006758        -0.077096        -0.185436
 O         1.177051         0.043434         0.069816
 C        -0.798449         1.210705         0.024658
 C        -1.805391         1.298795        -1.212474
 H        -4.291772         0.437616        -0.634387
 H        -2.747903        -1.412668        -2.994941
 H        -1.115240        -0.562329        -2.755394
 H        -2.854807        -2.056952        -0.511347
 H        -0.689133        -1.644094         0.886433
 H        -0.172536        -2.135033        -0.669758
 H        -1.650095         1.028698         0.809294
 H        -0.106481         2.029571         0.156175
 H        -2.479200         2.098036        -1.005133
 H        -1.152717         1.596049        -2.033007
