19
Iteration:  4973
 O        -4.094936         0.129181        -1.185727
 C        -2.718896         0.065378        -1.394970
 C        -2.142138        -0.720956        -2.564018
 C        -2.053795        -1.357538        -1.195522
 C        -0.695837        -1.365748        -0.297123
 C         0.053718        -0.090249        -0.118013
 O         1.123821        -0.059493         0.597450
 C        -0.463753         1.251069        -0.626910
 C        -1.964109         1.305783        -0.788662
 H        -4.509598         0.903812        -1.744224
 H        -2.726233        -1.174979        -3.272936
 H        -1.306782        -0.336810        -3.152086
 H        -2.713653        -2.178392        -1.044615
 H        -1.078343        -1.552207         0.680830
 H         0.040173        -2.052184        -0.516829
 H        -0.255941         2.064224         0.159860
 H        -0.007685         1.584849        -1.479876
 H        -2.603426         1.576561         0.172249
 H        -2.048705         2.262673        -1.342245
