19
Iteration:  1489
 O        -4.069282         0.178526        -1.685188
 C        -2.653341         0.130689        -1.378774
 C        -1.894483        -0.877903        -2.320842
 C        -2.144361        -1.222749        -0.826450
 C        -0.890509        -1.340114        -0.007072
 C         0.074199        -0.107401        -0.054657
 O         1.263551        -0.199769        -0.055302
 C        -0.710175         1.277065        -0.161687
 C        -1.946269         1.396184        -0.999772
 H        -4.605631         0.125430        -0.907702
 H        -2.498952        -1.215302        -3.204357
 H        -0.899408        -0.546437        -2.369190
 H        -2.920362        -1.976544        -0.533791
 H        -1.011157        -1.457843         1.117769
 H        -0.183286        -2.167760        -0.165157
 H        -1.039298         1.443267         0.917239
 H        -0.088114         2.206230        -0.322288
 H        -2.703660         2.152325        -0.594504
 H        -1.739096         1.975276        -1.916229
