19
Iteration:   235charge 0 multiplicity 1
 O        -3.982344         0.322909        -1.497119
 C        -2.549447         0.016157        -1.462724
 C        -1.940084        -1.000298        -2.415226
 C        -2.043595        -1.319137        -0.846342
 C        -1.004304        -1.217189         0.279596
 C        -0.020663        -0.087804        -0.043029
 O         1.187440        -0.085810        -0.273655
 C        -0.747298         1.284906        -0.034200
 C        -1.823645         1.282080        -1.205576
 H        -4.392293        -0.005459        -0.812011
 H        -2.573021        -1.629530        -2.972123
 H        -1.072156        -0.539714        -2.977791
 H        -2.811612        -2.029642        -0.777086
 H        -1.633127        -0.801545         1.077577
 H        -0.470567        -2.126333         0.669688
 H        -1.320629         1.442385         0.835253
 H         0.090489         2.012870         0.016893
 H        -2.652598         1.786196        -0.705535
 H        -1.453136         1.868390        -2.111579
