19
Iteration:    36
 O        -3.954333         0.169871        -1.455431
 C        -2.635257        -0.016484        -1.447191
 C        -2.081013        -1.039718        -2.391277
 C        -2.060863        -1.275099        -0.955336
 C        -1.034218        -1.182220         0.095600
 C         0.031078         0.040188         0.033228
 O         1.200404        -0.135902        -0.085458
 C        -0.652220         1.364124        -0.067680
 C        -1.781260         1.367887        -1.209554
 H        -4.312325        -0.254617        -0.789190
 H        -2.780514        -1.709271        -2.901840
 H        -1.242311        -0.528634        -3.041702
 H        -2.834484        -2.084465        -0.783653
 H        -1.570328        -1.230288         1.036627
 H        -0.417261        -2.124462         0.009231
 H        -1.166501         1.516960         0.881166
 H         0.141458         2.098157        -0.115748
 H        -2.432518         2.164064        -0.945786
 H        -1.314787         1.780137        -2.196391
