19
Iteration:  2644
 O        -3.886311         0.456123        -1.310534
 C        -2.641978         0.034506        -1.483486
 C        -2.236142        -1.208000        -2.427687
 C        -2.065442        -1.316560        -0.937319
 C        -0.686366        -1.329713        -0.272719
 C         0.005606         0.027672        -0.050267
 O         1.211428         0.023446         0.236854
 C        -0.865464         1.274155         0.002380
 C        -1.778696         1.318573        -1.245884
 H        -4.467722        -0.226462        -1.480551
 H        -3.238381        -1.483252        -3.002969
 H        -1.534810        -1.044102        -3.192210
 H        -2.723413        -2.080858        -0.476921
 H        -0.911309        -1.776673         0.707569
 H        -0.151141        -2.032803        -0.913416
 H        -1.478102         1.011798         0.956012
 H        -0.435856         2.219182         0.251688
 H        -2.362324         2.192017        -1.331765
 H        -1.229074         1.233678        -2.147296
