19
Iteration:  1802charge 0 multiplicity 1
 O        -4.040256         0.219348        -1.252288
 C        -2.540383         0.072842        -1.424020
 C        -2.067522        -1.044366        -2.406028
 C        -2.076553        -1.265764        -0.914423
 C        -0.796227        -1.376986        -0.180533
 C        -0.020530        -0.074193        -0.079105
 O         1.115446        -0.039405         0.238875
 C        -0.773004         1.279796        -0.178083
 C        -1.802431         1.390159        -1.334383
 H        -4.117326         1.183794        -1.474950
 H        -2.911512        -1.447477        -3.009535
 H        -1.031509        -0.771171        -2.759914
 H        -2.911204        -1.834995        -0.499701
 H        -1.070456        -1.774611         0.840491
 H        -0.096565        -2.126071        -0.615635
 H        -1.265120         1.433428         0.877002
 H         0.024871         2.060346        -0.309130
 H        -2.345241         2.299691        -1.183190
 H        -1.126788         1.590584        -2.241347
