19
Iteration:  2432
 O        -4.214846         0.334914        -1.527331
 C        -2.617099         0.055699        -1.456420
 C        -2.049695        -1.064651        -2.323399
 C        -2.055481        -1.258365        -0.861989
 C        -0.738187        -1.268800        -0.141750
 C         0.075907        -0.007339        -0.062798
 O         1.258273        -0.130991         0.159967
 C        -0.707832         1.310927        -0.108630
 C        -1.871966         1.350796        -1.178865
 H        -4.743167        -0.425415        -1.483481
 H        -2.650392        -1.894782        -2.912079
 H        -1.110776        -0.819379        -2.816158
 H        -2.824283        -1.903115        -0.336410
 H        -0.951232        -1.712019         0.802761
 H        -0.051430        -1.872986        -0.788533
 H        -1.180111         1.256244         0.904998
 H        -0.029481         2.221522         0.091394
 H        -2.581839         1.987352        -0.730539
 H        -1.562064         1.765585        -2.050032
