19
Iteration:  4570
 O        -4.128941         0.246087        -1.370660
 C        -2.751683         0.010406        -1.391918
 C        -2.056411        -0.743178        -2.597019
 C        -2.022562        -1.343499        -1.094697
 C        -0.771780        -1.295596        -0.129048
 C         0.047544        -0.033159        -0.117917
 O         1.174032        -0.001320         0.519586
 C        -0.490765         1.218917        -0.737574
 C        -1.966223         1.231420        -0.672592
 H        -4.565643        -0.359761        -0.844289
 H        -2.656327        -1.283063        -3.128854
 H        -1.074888        -0.441116        -2.941721
 H        -2.689282        -2.197154        -1.075175
 H        -1.219136        -1.368621         0.851612
 H        -0.161371        -2.209000        -0.312443
 H         0.081455         2.150632        -0.334412
 H        -0.322963         1.201665        -1.790285
 H        -2.271788         1.067394         0.315140
 H        -2.264919         2.263057        -1.020848
