19
Iteration:  4561
 O        -4.157213         0.269206        -1.420008
 C        -2.729505         0.025666        -1.385073
 C        -2.060686        -0.729097        -2.539946
 C        -2.019112        -1.357484        -1.137910
 C        -0.823672        -1.317259        -0.114957
 C         0.123867        -0.051498        -0.003527
 O         1.224787         0.022789         0.466963
 C        -0.487333         1.189491        -0.801260
 C        -2.038024         1.223743        -0.647522
 H        -4.568720        -0.258206        -0.782698
 H        -2.653465        -1.172308        -3.335530
 H        -1.060914        -0.406182        -2.941177
 H        -2.493469        -2.336154        -1.002414
 H        -1.431510        -1.434786         0.863380
 H        -0.077704        -2.227563        -0.149534
 H        -0.125338         2.115507        -0.331564
 H        -0.183452         1.223898        -1.832960
 H        -2.192014         1.136716         0.440155
 H        -2.446043         2.169253        -0.907888
