19
Iteration:  3431
 O        -4.027539         0.258195        -1.222758
 C        -2.597161         0.045393        -1.443243
 C        -2.215716        -0.937613        -2.488311
 C        -2.120449        -1.316360        -0.928985
 C        -0.707500        -1.328903        -0.316141
 C         0.017582         0.022262        -0.029333
 O         1.167912         0.001404         0.269854
 C        -0.832317         1.264782        -0.066621
 C        -1.684313         1.287092        -1.374367
 H        -4.191289        -0.020941        -0.326673
 H        -2.838797        -1.682750        -2.901174
 H        -1.257914        -0.959747        -3.130122
 H        -2.790377        -2.110174        -0.586051
 H        -0.843953        -1.636017         0.691340
 H        -0.010539        -2.019636        -0.841651
 H        -1.551828         1.162018         0.783474
 H        -0.326541         2.251461         0.191017
 H        -2.434142         2.187218        -1.488779
 H        -0.886756         1.520333        -2.173594
