19
Iteration:     2
 O        -3.977137         0.236322        -1.578890
 C        -2.587844         0.053394        -1.430883
 C        -2.043708        -1.038521        -2.301130
 C        -2.128517        -1.239902        -0.796070
 C        -0.844781        -1.293563         0.047478
 C        -0.015649        -0.020010        -0.051951
 O         1.199093        -0.057369        -0.126404
 C        -0.809700         1.269322        -0.023630
 C        -1.781370         1.332666        -1.224801
 H        -4.343021         0.509152        -0.671527
 H        -2.789634        -1.556589        -2.887759
 H        -1.024638        -0.929910        -2.749819
 H        -2.958447        -1.887645        -0.482990
 H        -1.130463        -1.378222         1.098951
 H        -0.218296        -2.178029        -0.174673
 H        -1.384886         1.278396         0.904738
 H        -0.093343         2.083191        -0.021605
 H        -2.456791         2.151236        -1.042734
 H        -1.173259         1.561754        -2.131321
