19
Iteration:  4743
 O        -4.005185         0.163532        -0.994463
 C        -2.678754         0.052784        -1.273251
 C        -2.264667        -0.558954        -2.506773
 C        -1.880927        -1.302635        -1.167469
 C        -0.569797        -1.450461        -0.549558
 C         0.035036        -0.047601        -0.126852
 O         0.702323         0.047108         0.995469
 C        -0.355413         1.089138        -1.016441
 C        -1.924995         1.301254        -0.921913
 H        -4.517122        -0.439878        -1.673795
 H        -3.012856        -1.054041        -3.051666
 H        -1.635274        -0.128882        -3.147442
 H        -2.528062        -2.208651        -1.066599
 H        -0.495805        -2.148108         0.303008
 H         0.142929        -2.022528        -1.264906
 H         0.226430         2.067826        -0.658039
 H         0.061984         1.007531        -2.054910
 H        -2.038367         1.667315         0.084643
 H        -2.262671         2.169804        -1.488010
