19
Iteration:   353
 O        -4.037881         0.327381        -1.500746
 C        -2.610932        -0.027352        -1.413887
 C        -1.994048        -1.027445        -2.296833
 C        -2.190830        -1.284598        -0.742326
 C        -0.803813        -1.336980        -0.011542
 C        -0.076942        -0.025161        -0.056495
 O         1.135074        -0.033987        -0.154656
 C        -0.785710         1.350922         0.010697
 C        -1.689864         1.199265        -1.249028
 H        -4.012840         1.221229        -1.502072
 H        -2.583303        -1.575930        -2.995803
 H        -0.939271        -0.751686        -2.385775
 H        -2.885736        -1.983727        -0.376027
 H        -1.015447        -1.448853         1.039150
 H        -0.087697        -2.098177        -0.397838
 H        -1.213423         1.632082         0.992927
 H        -0.057792         2.177405        -0.201953
 H        -2.413308         2.070825        -1.289678
 H        -1.091754         1.152421        -2.090704
