19
Iteration:   479
 O        -4.033664         0.241364        -1.369223
 C        -2.531021         0.091097        -1.593579
 C        -2.357897        -1.187564        -2.329146
 C        -2.107683        -1.167052        -0.856752
 C        -0.714513        -1.315041        -0.294161
 C         0.097413         0.041813        -0.070264
 O         1.246603        -0.068370         0.326796
 C        -0.855270         1.201028        -0.057419
 C        -1.706457         1.407467        -1.335183
 H        -4.287653         1.085483        -1.226314
 H        -3.327874        -1.505604        -2.719126
 H        -1.549917        -1.557419        -3.000822
 H        -2.804374        -1.520757        -0.103295
 H        -0.583985        -1.661889         0.743954
 H        -0.073483        -2.050658        -0.757072
 H        -1.440149         0.880924         0.779686
 H        -0.300049         2.073796         0.159389
 H        -2.364265         2.245286        -1.277245
 H        -1.128578         1.659121        -2.277049
