19
Iteration:  2802
 O        -3.992869         0.340418        -1.479893
 C        -2.634271         0.003395        -1.506985
 C        -2.195251        -1.161248        -2.424839
 C        -2.143128        -1.261250        -0.876308
 C        -0.667384        -1.227079        -0.231700
 C         0.033622         0.040038        -0.037459
 O         1.242617        -0.048388         0.069666
 C        -0.917938         1.224828         0.080140
 C        -1.745690         1.296019        -1.134064
 H        -4.177136         0.839155        -0.643994
 H        -2.977828        -1.708986        -2.981443
 H        -1.323834        -0.913632        -2.976066
 H        -2.869816        -1.851646        -0.318922
 H        -0.667581        -1.625887         0.833882
 H        -0.059688        -2.000170        -0.702638
 H        -1.515966         1.037637         1.011842
 H        -0.286163         2.174352         0.152651
 H        -2.371422         2.249051        -1.020860
 H        -1.067792         1.430278        -2.023568
