19
Iteration:  3549
 O        -3.976153         0.327492        -1.147610
 C        -2.594971         0.013363        -1.452571
 C        -2.332204        -1.023771        -2.421939
 C        -2.071286        -1.318462        -0.930924
 C        -0.556113        -1.379239        -0.534798
 C         0.035196        -0.001953        -0.043793
 O         1.106936         0.117898         0.506464
 C        -0.973430         1.226705        -0.165023
 C        -1.651481         1.185105        -1.427991
 H        -3.901074         1.093132        -0.444489
 H        -3.202300        -1.324896        -2.946992
 H        -1.546172        -0.797903        -3.165429
 H        -2.736102        -2.104499        -0.551944
 H        -0.521760        -2.014043         0.420696
 H         0.148997        -1.904188        -1.221153
 H        -1.489816         1.231390         0.796381
 H        -0.221868         2.074040        -0.092134
 H        -2.339360         2.121643        -1.306947
 H        -1.117829         1.358742        -2.286108
