19
Iteration:  2320
 O        -3.862013         0.411349        -1.505409
 C        -2.544932         0.078968        -1.378565
 C        -1.997442        -1.024392        -2.318206
 C        -2.101405        -1.277087        -0.871191
 C        -0.815395        -1.410045         0.067174
 C        -0.049158        -0.080432        -0.098906
 O         1.100922         0.103751        -0.258486
 C        -0.937544         1.150014         0.111268
 C        -1.750981         1.263592        -1.166223
 H        -4.511235        -0.425433        -1.423036
 H        -2.684870        -1.384293        -3.023205
 H        -1.019568        -0.779155        -2.841066
 H        -2.932400        -1.954606        -0.502416
 H        -1.267380        -1.333297         1.074548
 H        -0.228194        -2.317440         0.150766
 H        -1.717785         1.210771         0.995959
 H        -0.249256         2.004413         0.166641
 H        -2.305362         2.246046        -1.329941
 H        -1.101156         1.373332        -2.002267
