19
Iteration:  1584
 O        -4.033620         0.201625        -1.555358
 C        -2.651647         0.062200        -1.422796
 C        -1.958529        -0.873397        -2.372320
 C        -2.152916        -1.280709        -0.901698
 C        -0.888951        -1.351278         0.028519
 C         0.094405        -0.044030        -0.107502
 O         1.270935        -0.145383         0.006700
 C        -0.754436         1.264225        -0.081512
 C        -1.869819         1.429172        -1.120816
 H        -4.427275         0.198769        -0.573934
 H        -2.693289        -1.389250        -3.105208
 H        -0.972138        -0.529400        -2.634998
 H        -2.941090        -2.041937        -0.775127
 H        -1.268478        -1.454836         1.030775
 H        -0.438705        -2.325151        -0.205507
 H        -1.305760         1.376961         0.916797
 H        -0.030081         2.115343        -0.100231
 H        -2.564668         2.130140        -0.743012
 H        -1.528749         1.818952        -2.105526
