19
Iteration:  1654charge 0 multiplicity 1
 O        -3.891647         0.332139        -1.499646
 C        -2.555671         0.057630        -1.392774
 C        -2.148553        -1.061278        -2.540654
 C        -2.180394        -1.216610        -0.850320
 C        -0.849883        -1.279608        -0.028703
 C        -0.023066        -0.026868         0.023742
 O         1.240468         0.001032        -0.117876
 C        -0.867712         1.185378         0.097443
 C        -1.705132         1.262051        -1.163302
 H        -4.411868        -0.419881        -1.312656
 H        -2.943367        -1.456032        -3.101723
 H        -1.112221        -0.764463        -2.936119
 H        -2.968518        -1.956357        -0.531683
 H        -1.035554        -1.316110         1.053896
 H        -0.195418        -2.139107        -0.244472
 H        -1.573462         1.025374         1.038300
 H        -0.353449         2.215486         0.317668
 H        -2.483545         2.115434        -0.939894
 H        -1.093031         1.601380        -2.018524
