19
Iteration:  3004charge 0 multiplicity 1
 O        -4.029619         0.262573        -1.618032
 C        -2.654654        -0.004259        -1.407885
 C        -1.996258        -0.938365        -2.348184
 C        -2.088261        -1.330163        -0.836422
 C        -0.792678        -1.291897        -0.081406
 C         0.029079        -0.070937        -0.057946
 O         1.225021        -0.060396        -0.056726
 C        -0.729586         1.257518        -0.107607
 C        -1.927137         1.303615        -0.964019
 H        -4.365495         0.879641        -0.876972
 H        -2.638620        -1.271231        -3.271948
 H        -1.063440        -0.600120        -2.542122
 H        -2.735456        -2.225503        -0.591138
 H        -1.190245        -1.222651         0.986752
 H        -0.246259        -2.262045        -0.224761
 H        -1.005439         1.605362         0.967367
 H        -0.070196         2.063386        -0.386836
 H        -2.650499         1.945159        -0.492704
 H        -1.806183         2.015623        -1.943220
