19
Iteration:  2797charge 0 multiplicity 1
 O        -4.003848         0.296050        -1.468862
 C        -2.635761         0.059620        -1.495690
 C        -2.198155        -1.106635        -2.378772
 C        -2.116973        -1.299457        -0.891565
 C        -0.686198        -1.223961        -0.264874
 C        -0.003187         0.045545        -0.031231
 O         1.251932        -0.048094         0.084103
 C        -0.880495         1.202486         0.090842
 C        -1.742125         1.287661        -1.163036
 H        -4.170311         0.828712        -0.703811
 H        -2.955995        -1.646538        -2.937611
 H        -1.221779        -1.016205        -3.008400
 H        -2.966000        -1.717447        -0.303580
 H        -0.786263        -1.551813         0.760564
 H         0.001312        -1.989989        -0.674592
 H        -1.533390         1.126117         0.960201
 H        -0.285996         2.078794         0.087182
 H        -2.291272         2.184952        -1.146976
 H        -1.166249         1.430741        -2.069302
