19
Iteration:  4400
 O        -3.964475        -0.000775        -1.672063
 C        -2.569777         0.133206        -1.336539
 C        -1.830755        -0.797763        -2.277926
 C        -2.095355        -1.243261        -0.864220
 C        -0.864388        -1.348080         0.076094
 C        -0.017938        -0.056541        -0.066579
 O         1.116816        -0.191164        -0.359434
 C        -0.754063         1.286124        -0.046478
 C        -2.018739         1.483874        -0.900695
 H        -4.313158         0.263267        -0.839301
 H        -2.376544        -1.146824        -3.128251
 H        -0.670501        -0.551296        -2.472382
 H        -2.860020        -1.962533        -0.590190
 H        -1.164671        -1.419394         1.122819
 H        -0.205012        -2.124309        -0.146267
 H        -0.996832         1.453821         1.012848
 H        -0.003241         2.106879        -0.301544
 H        -2.779119         1.985686        -0.277520
 H        -1.820238         2.238339        -1.706139
