19
Iteration:  2891charge 0 multiplicity 1
 O        -3.945396         0.311799        -1.407857
 C        -2.559963         0.002463        -1.497246
 C        -2.045688        -0.984797        -2.497857
 C        -2.024989        -1.286217        -0.905184
 C        -0.806172        -1.342087        -0.001364
 C        -0.098585        -0.012012        -0.028958
 O         1.141868        -0.031397        -0.139923
 C        -0.862261         1.248410         0.147796
 C        -1.805298         1.295412        -1.205694
 H        -4.035576         0.651801        -0.462968
 H        -2.755999        -1.640171        -3.014532
 H        -1.183367        -0.823306        -3.133361
 H        -2.883999        -1.862977        -0.618143
 H        -0.934812        -1.435940         1.125339
 H        -0.048930        -2.126266        -0.168543
 H        -1.628460         1.078965         0.970226
 H        -0.125117         2.078092         0.277973
 H        -2.553840         2.131024        -1.136564
 H        -1.120801         1.686427        -2.025649
