19
Iteration:  3939
 O        -3.921153         0.237800        -0.875670
 C        -2.554211         0.036377        -1.422534
 C        -2.504640        -1.119946        -2.392627
 C        -1.948712        -1.247515        -1.029594
 C        -0.387924        -1.181460        -0.839727
 C        -0.003804         0.073746        -0.002117
 O         0.710654        -0.096139         0.937923
 C        -0.677145         1.368876        -0.453542
 C        -1.686345         1.208983        -1.623069
 H        -3.914128        -0.174393         0.025936
 H        -3.581384        -1.213596        -2.642035
 H        -1.742987        -1.020798        -3.135583
 H        -2.354142        -1.881716        -0.272395
 H        -0.153165        -2.105641        -0.217651
 H         0.080552        -1.283965        -1.831051
 H        -1.106385         1.867988         0.416827
 H         0.132159         1.961544        -0.747177
 H        -2.317733         2.072688        -1.588465
 H        -1.098861         1.121430        -2.603741
