19
Iteration:   215
 O        -3.993242         0.141467        -1.502363
 C        -2.587561         0.125283        -1.475843
 C        -1.916971        -1.057773        -2.426672
 C        -2.088690        -1.198598        -0.874483
 C        -1.024711        -1.111825         0.185157
 C         0.010979        -0.035251        -0.022691
 O         1.198764        -0.204081        -0.250777
 C        -0.745100         1.283115        -0.010448
 C        -1.835709         1.396760        -1.133856
 H        -4.200363        -0.149999        -0.602130
 H        -2.606445        -1.595528        -2.969763
 H        -0.918896        -1.090514        -2.801913
 H        -2.887714        -1.807338        -0.540943
 H        -1.526000        -1.052722         1.156948
 H        -0.451498        -2.030806         0.162472
 H        -1.141316         1.335325         1.006214
 H        -0.161690         2.211383        -0.161983
 H        -2.502094         2.121066        -0.896125
 H        -1.199588         1.515418        -2.015996
