19
Iteration:  4863
 O        -3.997995         0.175095        -1.100601
 C        -2.622848         0.077135        -1.334624
 C        -2.262115        -0.821014        -2.540642
 C        -1.990997        -1.292385        -1.206503
 C        -0.613850        -1.305227        -0.610205
 C         0.039181        -0.051098        -0.070803
 O         0.812695        -0.019816         0.891388
 C        -0.414150         1.181873        -0.801125
 C        -1.916929         1.302009        -0.836239
 H        -4.248157         1.015009        -0.841135
 H        -3.043588        -1.431164        -3.085125
 H        -1.416452        -0.631343        -3.087861
 H        -2.627025        -2.145438        -0.829558
 H        -0.457986        -2.127716         0.093407
 H         0.097282        -1.619801        -1.474013
 H         0.035893         2.239027        -0.654176
 H        -0.038563         0.894928        -1.746156
 H        -2.292932         1.271304         0.240249
 H        -2.239024         2.231785        -1.228277
