19
Iteration:  2960charge 0 multiplicity 1
 O        -4.037811         0.163341        -1.633511
 C        -2.629602         0.139055        -1.386582
 C        -1.991445        -0.979042        -2.341939
 C        -2.143759        -1.196407        -0.821941
 C        -0.712071        -1.289664        -0.113591
 C         0.065720        -0.050238        -0.034361
 O         1.243860        -0.179767        -0.075679
 C        -0.753880         1.262846         0.018977
 C        -1.989716         1.415933        -1.103749
 H        -4.492485         0.170717        -0.694170
 H        -2.679572        -1.504579        -3.036880
 H        -1.047597        -0.754268        -2.763452
 H        -2.965316        -1.826036        -0.380529
 H        -0.993842        -1.429206         0.951792
 H        -0.020149        -2.121578        -0.389544
 H        -1.362730         1.197918         0.971413
 H        -0.033535         2.033376         0.090831
 H        -2.720044         2.119748        -0.723250
 H        -1.682066         2.019471        -2.096910
