19
Iteration:   809charge 0 multiplicity 1
 O        -3.711562         0.419117        -0.875563
 C        -2.553510        -0.026215        -1.410594
 C        -2.613129        -1.172656        -2.318177
 C        -1.841897        -1.291575        -0.945465
 C        -0.358316        -1.214400        -0.970435
 C        -0.069355         0.012213        -0.031225
 O         0.433120        -0.156030         1.046298
 C        -0.623223         1.403747        -0.483983
 C        -1.651470         1.168209        -1.715874
 H        -3.625622         0.839460         0.095782
 H        -3.595103        -1.609637        -2.648345
 H        -2.025215        -1.179935        -3.199140
 H        -2.194763        -1.722132         0.034756
 H         0.339234        -2.000608        -0.541632
 H        -0.156050        -0.950167        -2.027659
 H        -1.032302         1.863316         0.479724
 H         0.204341         2.117391        -0.812777
 H        -2.340568         2.009089        -1.641557
 H        -1.169770         1.144376        -2.715409
