19
Iteration:   112
 O        -3.928681         0.126445        -1.684445
 C        -2.627899         0.034608        -1.426318
 C        -2.188707        -1.039186        -2.275537
 C        -2.192030        -1.216197        -0.792204
 C        -0.818870        -1.247305        -0.034723
 C         0.053520        -0.035990        -0.051221
 O         1.263655        -0.156589        -0.033539
 C        -0.675285         1.396318        -0.068433
 C        -1.913929         1.384036        -1.090590
 H        -4.454203         0.507255        -0.795306
 H        -2.843860        -1.768084        -2.824425
 H        -1.180646        -0.945819        -2.783153
 H        -3.024642        -1.875366        -0.404689
 H        -0.999210        -1.182679         1.044952
 H        -0.202122        -2.152360        -0.288009
 H        -0.810828         1.815357         0.922683
 H         0.118483         2.033007        -0.437249
 H        -2.630879         2.119823        -0.918329
 H        -1.532006         1.884371        -1.973811
