19
Iteration:  1696
 O        -3.944240         0.523059        -1.391263
 C        -2.547136        -0.029019        -1.463153
 C        -2.055289        -1.056204        -2.322309
 C        -2.114712        -1.262473        -0.835181
 C        -0.724316        -1.414538        -0.068481
 C        -0.087610        -0.043610         0.028400
 O         1.146338         0.041518        -0.114686
 C        -0.982521         1.184069         0.046440
 C        -1.687822         1.270417        -1.267511
 H        -4.551609         0.023559        -1.883973
 H        -2.470041        -1.641744        -3.033106
 H        -1.156057        -0.707169        -2.871331
 H        -2.853178        -1.944959        -0.402093
 H        -0.865921        -1.914278         0.855131
 H        -0.072051        -2.010485        -0.715397
 H        -1.797077         1.113570         0.775020
 H        -0.333695         2.008529         0.476558
 H        -2.287203         2.191468        -1.219590
 H        -1.015685         1.355828        -2.103023
