19
Iteration:  1494charge 0 multiplicity 1
 O        -4.046619         0.208417        -1.683615
 C        -2.692032         0.108585        -1.389411
 C        -1.871966        -0.876550        -2.305284
 C        -2.140541        -1.203842        -0.768257
 C        -0.892282        -1.380361        -0.007966
 C         0.035749        -0.073187        -0.133191
 O         1.253457        -0.179380        -0.028233
 C        -0.657708         1.283217        -0.146091
 C        -1.983902         1.375727        -1.000568
 H        -4.621827         0.109641        -0.797384
 H        -2.377970        -1.339095        -3.132733
 H        -0.836677        -0.464686        -2.595323
 H        -2.921194        -1.966822        -0.723777
 H        -1.040504        -1.488951         1.081269
 H        -0.205891        -2.208143        -0.280703
 H        -1.141731         1.321394         0.899441
 H         0.090360         2.050584        -0.320547
 H        -2.660120         2.117311        -0.586973
 H        -1.723183         1.873605        -1.958097
