19
Iteration:  1982charge 0 multiplicity 1
 O        -3.855749         0.364721        -1.236331
 C        -2.524684         0.017458        -1.450647
 C        -2.125217        -1.077593        -2.414984
 C        -2.152139        -1.328849        -0.866522
 C        -0.801359        -1.349113        -0.118613
 C        -0.106290        -0.014033         0.020298
 O         1.126735         0.099579        -0.050866
 C        -0.931443         1.200543         0.028324
 C        -1.628669         1.262990        -1.366247
 H        -4.102010         0.981800        -1.891437
 H        -2.847953        -1.320876        -3.163831
 H        -1.061217        -1.005035        -2.758369
 H        -2.961703        -1.973460        -0.591670
 H        -1.114067        -1.751438         0.880926
 H        -0.141700        -2.153299        -0.487209
 H        -1.902216         1.088094         0.612242
 H        -0.392217         2.084266         0.430445
 H        -2.322491         1.975250        -1.274600
 H        -0.811611         1.392883        -1.935523
