19
Iteration:  1485charge 0 multiplicity 1
 O        -4.070773         0.158314        -1.697101
 C        -2.623469         0.120047        -1.373610
 C        -1.937041        -0.866634        -2.312426
 C        -2.157473        -1.244559        -0.881404
 C        -0.866113        -1.297598         0.016733
 C         0.068013        -0.120806        -0.011351
 O         1.284631        -0.215749        -0.072759
 C        -0.741856         1.276135        -0.146814
 C        -1.937477         1.432883        -1.013203
 H        -4.645320         0.131308        -0.809325
 H        -2.502590        -1.141190        -3.153588
 H        -0.818252        -0.610928        -2.349482
 H        -2.873256        -1.908519        -0.452337
 H        -1.091311        -1.399263         1.054920
 H        -0.242891        -2.183961        -0.189853
 H        -0.910989         1.491955         0.864967
 H        -0.193271         2.177635        -0.338068
 H        -2.666759         2.041368        -0.531347
 H        -1.692083         1.994043        -1.931759
