19
Iteration:  4968
 O        -4.113968         0.131554        -1.167644
 C        -2.689762         0.070868        -1.379811
 C        -2.130788        -0.681397        -2.597362
 C        -2.015718        -1.344957        -1.204999
 C        -0.729837        -1.361908        -0.306080
 C         0.115198        -0.060412        -0.099061
 O         1.093331        -0.069635         0.610241
 C        -0.477317         1.209761        -0.634857
 C        -1.985050         1.334725        -0.788946
 H        -4.666524         0.665931        -1.721862
 H        -2.840523        -1.366738        -3.252386
 H        -1.240091        -0.286038        -3.104212
 H        -2.758625        -2.155799        -0.952447
 H        -1.035363        -1.613261         0.786977
 H         0.063052        -2.194512        -0.546280
 H        -0.241194         1.963026         0.062808
 H        -0.001917         1.481826        -1.693805
 H        -2.508878         1.519246         0.097050
 H        -2.046485         2.266496        -1.397159
