19
Iteration:  1174
 O        -4.015391         0.306153        -1.509818
 C        -2.606793         0.108923        -1.467885
 C        -2.153283        -1.108071        -2.363180
 C        -2.118658        -1.216627        -0.873224
 C        -0.798028        -1.343018        -0.153157
 C         0.057192        -0.076388        -0.055253
 O         1.242752         0.020651         0.117739
 C        -0.840883         1.157349         0.023150
 C        -1.726256         1.405620        -1.248340
 H        -4.288510         0.598181        -0.702335
 H        -2.994236        -1.620417        -2.875819
 H        -1.236653        -1.208127        -2.954567
 H        -2.872653        -1.872077        -0.453693
 H        -0.783210        -1.801265         0.864656
 H        -0.255595        -2.231818        -0.715849
 H        -1.529910         1.037484         0.931422
 H        -0.341143         2.134193         0.163133
 H        -2.415357         2.238666        -0.939216
 H        -1.237564         1.647409        -2.195376
