19
Iteration:  2203charge 0 multiplicity 1
 O        -4.047917         0.085219        -1.321462
 C        -2.619625         0.006867        -1.455589
 C        -2.052470        -0.935026        -2.427454
 C        -2.087338        -1.240557        -0.912832
 C        -0.870279        -1.211632        -0.021010
 C         0.023655        -0.015892        -0.010380
 O         1.204415        -0.175284         0.022459
 C        -0.780131         1.346954        -0.050456
 C        -1.766896         1.367676        -1.269591
 H        -4.105508         0.864541        -2.010873
 H        -2.623210        -1.331269        -3.231913
 H        -0.978602        -0.943055        -2.700701
 H        -2.918942        -1.857735        -0.616537
 H        -1.191667        -1.259653         1.031893
 H        -0.195419        -2.066524        -0.182670
 H        -1.322135         1.437815         0.873252
 H        -0.077393         2.176903        -0.063134
 H        -2.432125         2.127979        -1.084938
 H        -1.385664         1.735898        -2.257194
