19
Iteration:   261
 O        -3.962553         0.300442        -1.590479
 C        -2.646835         0.068391        -1.391330
 C        -1.915672        -0.980406        -2.256243
 C        -2.098914        -1.305374        -0.764364
 C        -0.863757        -1.265756         0.146231
 C        -0.067686        -0.015217        -0.029716
 O         1.130207        -0.169909        -0.261706
 C        -0.773504         1.331583        -0.097987
 C        -1.829427         1.329409        -1.168322
 H        -4.535167        -0.077375        -1.019872
 H        -2.386471        -1.564269        -3.080925
 H        -0.987446        -0.547829        -2.424789
 H        -2.828384        -2.161608        -0.721079
 H        -1.267452        -1.464556         1.159285
 H        -0.134948        -2.016562        -0.097680
 H        -1.175971         1.537957         0.940209
 H         0.048141         2.032307        -0.199197
 H        -2.518938         2.121082        -1.021899
 H        -1.112177         1.380168        -1.973832
