19
Iteration:   698charge 0 multiplicity 1
 O        -3.812070         0.335514        -0.888936
 C        -2.602873         0.037454        -1.477606
 C        -2.471713        -1.074938        -2.386167
 C        -1.928225        -1.210898        -0.919537
 C        -0.464189        -1.296658        -0.717137
 C        -0.053121        -0.078700        -0.111977
 O         0.636183        -0.066006         0.898655
 C        -0.692599         1.358150        -0.471382
 C        -1.640945         1.204796        -1.638215
 H        -3.639694         0.593111        -0.035950
 H        -3.330687        -1.644263        -2.632858
 H        -1.646057        -0.831921        -3.173337
 H        -2.537306        -1.715249        -0.212381
 H         0.096488        -2.087767        -0.157705
 H         0.031887        -1.452655        -1.687572
 H        -1.246167         1.488262         0.517913
 H         0.115704         2.097125        -0.701949
 H        -2.322462         2.019256        -1.606540
 H        -1.044210         1.229774        -2.561873
