19
Iteration:  2243charge 0 multiplicity 1
 O        -4.008851         0.375376        -1.538314
 C        -2.583357         0.054261        -1.393627
 C        -2.053226        -1.004717        -2.326606
 C        -2.141196        -1.322215        -0.766511
 C        -0.780543        -1.412865        -0.036768
 C         0.046138        -0.064295        -0.058131
 O         1.224818         0.072995        -0.098056
 C        -0.839841         1.175784        -0.023120
 C        -1.805663         1.325532        -1.159239
 H        -4.431721         0.105936        -2.314431
 H        -2.712265        -1.506146        -3.122885
 H        -1.057259        -0.802598        -2.640236
 H        -2.959751        -1.881312        -0.217655
 H        -1.148498        -1.570390         0.998797
 H        -0.201945        -2.336654        -0.181026
 H        -1.535978         1.131325         0.894708
 H        -0.199273         2.051016         0.124839
 H        -2.569125         2.218035        -0.926466
 H        -1.303954         1.684180        -2.070867
