19
Iteration:  1523charge 0 multiplicity 1
 O        -3.996761         0.282215        -1.634831
 C        -2.638507         0.106790        -1.388284
 C        -1.935605        -0.924133        -2.310515
 C        -2.105036        -1.290954        -0.835633
 C        -0.831640        -1.384285        -0.029898
 C         0.000851        -0.073985        -0.109404
 O         1.219631        -0.103297         0.003502
 C        -0.724007         1.205809        -0.176444
 C        -1.983571         1.376436        -1.006411
 H        -4.506571         0.499152        -0.739443
 H        -2.461590        -1.205486        -3.248435
 H        -0.947204        -0.728023        -2.625387
 H        -2.936253        -2.001562        -0.610473
 H        -1.191614        -1.370842         1.057233
 H        -0.117224        -2.186842        -0.256635
 H        -1.144042         1.380775         0.805275
 H         0.099949         1.880719        -0.500594
 H        -2.656772         2.071129        -0.390664
 H        -1.655134         1.883366        -1.922819
