19
Iteration:    59charge 0 multiplicity 1
 O        -4.104169         0.298079        -1.395620
 C        -2.614417         0.025224        -1.500777
 C        -1.880344        -0.911752        -2.397204
 C        -2.007188        -1.220500        -0.860875
 C        -0.865490        -1.213676         0.175676
 C         0.027295        -0.102916        -0.120517
 O         1.216608        -0.199165        -0.006326
 C        -0.860483         1.263927        -0.215859
 C        -1.912937         1.321008        -1.256293
 H        -4.281908        -0.237873        -0.453054
 H        -2.458503        -1.427164        -3.263990
 H        -0.764184        -0.574412        -2.493620
 H        -2.802290        -1.945642        -0.501886
 H        -1.230178        -1.089588         1.185793
 H        -0.349965        -2.222908         0.112203
 H        -1.214748         1.397077         0.817374
 H        -0.083767         2.013927        -0.363506
 H        -2.574917         2.198676        -1.154937
 H        -1.241785         1.644794        -2.153056
