19
Iteration:  2745
 O        -4.037983         0.293167        -1.282008
 C        -2.669845         0.062604        -1.440893
 C        -2.131330        -1.013112        -2.424430
 C        -2.036134        -1.222325        -0.992649
 C        -0.722530        -1.330135        -0.218143
 C         0.022662        -0.069512         0.006734
 O         1.208174        -0.025389         0.261945
 C        -0.822711         1.243017        -0.150785
 C        -1.769263         1.299672        -1.334134
 H        -4.121188         0.211076        -0.264887
 H        -2.902788        -1.339250        -3.029155
 H        -1.224639        -0.684501        -3.051241
 H        -2.704562        -2.116231        -0.820657
 H        -1.165793        -1.601965         0.783408
 H        -0.186872        -2.191911        -0.613817
 H        -1.409647         1.355427         0.835177
 H        -0.074423         2.079044        -0.126688
 H        -2.629193         1.999054        -1.274087
 H        -1.314118         1.642937        -2.258855
