19
Iteration:   129
 O        -4.052017         0.246806        -1.721707
 C        -2.590340         0.029693        -1.414653
 C        -2.136563        -1.200869        -2.314479
 C        -2.147280        -1.255834        -0.796407
 C        -0.832167        -1.180050        -0.004634
 C         0.099376         0.035053        -0.067920
 O         1.327374        -0.167101        -0.028103
 C        -0.680190         1.363434        -0.092036
 C        -1.913195         1.320311        -1.059206
 H        -4.422565         1.021293        -1.115272
 H        -3.061976        -1.429965        -2.722275
 H        -1.278402        -1.249843        -2.923109
 H        -2.792267        -1.918483        -0.284613
 H        -1.152445        -1.341045         1.058762
 H        -0.189330        -2.021215        -0.204603
 H        -1.152988         1.345236         0.940610
 H        -0.088752         2.300660        -0.238793
 H        -2.677187         1.948559        -0.370243
 H        -1.738129         1.997395        -1.969792
