19
Iteration:  3675
 O        -3.862441         0.297763        -0.895741
 C        -2.617457         0.082002        -1.527812
 C        -2.572600        -1.164304        -2.482863
 C        -2.015494        -1.231862        -1.068717
 C        -0.475271        -1.225507        -0.735708
 C        -0.069887         0.007480         0.051701
 O         0.908368         0.070282         0.831421
 C        -0.756365         1.296912        -0.297160
 C        -1.558635         1.133147        -1.568731
 H        -3.817827         0.150771         0.115151
 H        -3.523385        -1.615971        -2.690285
 H        -1.782164        -1.168801        -3.284750
 H        -2.521376        -1.922787        -0.400849
 H        -0.071989        -2.125608        -0.335417
 H        -0.011565        -1.006074        -1.719626
 H        -1.426485         1.273618         0.641243
 H        -0.243627         2.232887        -0.233483
 H        -2.176238         1.909696        -1.807281
 H        -0.942060         0.896408        -2.466718
