19
Iteration:  2316charge 0 multiplicity 1
 O        -3.871925         0.394562        -1.525077
 C        -2.512086         0.073222        -1.374085
 C        -1.978077        -1.033997        -2.333972
 C        -2.146716        -1.269085        -0.837067
 C        -0.834410        -1.416087         0.041754
 C        -0.059477        -0.067586        -0.051252
 O         1.105800         0.112224        -0.272518
 C        -0.913618         1.147557         0.091101
 C        -1.758816         1.277747        -1.137400
 H        -4.519338        -0.246604        -1.475306
 H        -2.777796        -1.405718        -3.057936
 H        -1.136579        -0.808267        -2.891507
 H        -2.806306        -2.021103        -0.448704
 H        -1.108805        -1.302510         1.119452
 H        -0.210923        -2.326351         0.057765
 H        -1.670247         1.161722         0.865305
 H        -0.266167         2.011448         0.264700
 H        -2.287564         2.192047        -1.287064
 H        -1.077997         1.384737        -1.986016
