19
Iteration:  2239
 O        -4.025904         0.378971        -1.509834
 C        -2.598192         0.050116        -1.391022
 C        -2.029572        -0.997646        -2.358991
 C        -2.133799        -1.309891        -0.776382
 C        -0.791266        -1.413192        -0.015665
 C         0.039560        -0.070803        -0.065151
 O         1.244792         0.064343        -0.083658
 C        -0.849988         1.167659        -0.011302
 C        -1.826784         1.349789        -1.186468
 H        -4.486923         0.164679        -2.411606
 H        -2.706377        -1.532743        -3.028545
 H        -0.960686        -0.849247        -2.603257
 H        -2.810367        -1.952360        -0.240847
 H        -1.207254        -1.520943         1.013084
 H        -0.172293        -2.299616        -0.283393
 H        -1.523648         1.213815         0.918836
 H        -0.096411         2.013373        -0.018495
 H        -2.591401         2.095253        -0.904745
 H        -1.225265         1.548960        -2.088564
