19
Iteration:   661charge 0 multiplicity 1
 O        -3.992164         0.358731        -1.138790
 C        -2.673250         0.047114        -1.511989
 C        -2.627479        -1.189535        -2.374829
 C        -1.960783        -1.253960        -0.964859
 C        -0.405677        -1.221817        -0.723007
 C         0.013586         0.028536         0.069706
 O         0.933182        -0.069890         0.894586
 C        -0.638297         1.306446        -0.339919
 C        -1.618643         1.201286        -1.560941
 H        -4.156588         0.477532        -0.274712
 H        -3.609618        -1.743645        -2.330860
 H        -2.192217        -1.296625        -3.343885
 H        -2.499106        -1.879974        -0.207470
 H        -0.158102        -2.160277        -0.268387
 H         0.138922        -0.983552        -1.659687
 H        -1.107298         1.718001         0.580507
 H         0.187827         2.011201        -0.473299
 H        -2.206133         2.129521        -1.523300
 H        -1.098118         1.368457        -2.488212
