19
Iteration:  4698
 O        -3.969776         0.066319        -1.065559
 C        -2.600585         0.094030        -1.370593
 C        -2.212868        -0.733630        -2.502986
 C        -2.060366        -1.287760        -1.096616
 C        -0.609136        -1.413701        -0.530451
 C         0.059586        -0.075895        -0.126898
 O         0.736492         0.038455         0.870386
 C        -0.394924         1.225075        -0.917336
 C        -1.887800         1.297427        -0.840363
 H        -4.449579         0.958424        -1.321069
 H        -2.888698        -1.177390        -3.093781
 H        -1.334408        -0.413222        -3.095074
 H        -2.753917        -2.073021        -0.933283
 H        -0.392234        -2.139779         0.344955
 H         0.140807        -1.862672        -1.272913
 H         0.020026         2.225467        -0.590372
 H        -0.171648         1.243173        -2.008601
 H        -2.197990         1.392362         0.223037
 H        -2.342260         2.175087        -1.265917
