19
Iteration:  1065
 O        -3.963391         0.483856        -1.207801
 C        -2.577663         0.034057        -1.487387
 C        -2.372344        -1.083516        -2.422716
 C        -2.008745        -1.376438        -1.009825
 C        -0.605017        -1.373163        -0.387688
 C        -0.069784        -0.049795         0.069039
 O         1.093004         0.027943         0.429539
 C        -0.877046         1.298579        -0.131385
 C        -1.666305         1.222457        -1.439425
 H        -3.926447         0.506813        -0.280886
 H        -3.163029        -1.682214        -2.726604
 H        -1.473206        -0.916295        -3.075357
 H        -2.774110        -2.061441        -0.593836
 H        -0.751599        -1.993324         0.491331
 H         0.204237        -1.688478        -1.071253
 H        -1.345446         1.394350         0.875132
 H        -0.285391         2.205518        -0.316871
 H        -2.108454         2.214877        -1.697200
 H        -0.896619         1.051782        -2.223839
