19
Iteration:  1884charge 0 multiplicity 1
 O        -4.012470         0.317255        -1.286394
 C        -2.630702         0.105762        -1.440775
 C        -2.132905        -0.987687        -2.388998
 C        -2.050586        -1.251310        -0.908169
 C        -0.758497        -1.414359        -0.154558
 C        -0.016104        -0.077713         0.006664
 O         1.188214        -0.042192         0.261402
 C        -0.733379         1.287812        -0.234735
 C        -1.842622         1.346777        -1.286110
 H        -4.390501         0.019226        -2.056385
 H        -2.798816        -1.630937        -3.105343
 H        -1.284520        -0.822113        -2.993955
 H        -2.881008        -1.926004        -0.630513
 H        -0.863953        -2.120309         0.719035
 H        -0.024734        -1.981736        -0.785327
 H        -1.278621         1.316610         0.741317
 H        -0.002343         2.148572        -0.308962
 H        -2.440211         2.255226        -0.766857
 H        -1.431909         1.513926        -2.314615
