19
Iteration:  3452
 O        -3.995770         0.394130        -1.225757
 C        -2.669489         0.042850        -1.482782
 C        -2.202172        -1.085011        -2.407189
 C        -1.958465        -1.187330        -0.964974
 C        -0.634025        -1.373990        -0.315898
 C        -0.018586        -0.052621         0.084093
 O         1.174992         0.046210         0.267556
 C        -0.889571         1.160043        -0.097095
 C        -1.839767         1.230921        -1.413071
 H        -4.322985         0.030168        -0.300848
 H        -2.830244        -1.370596        -3.152754
 H        -1.390957        -0.592595        -3.025216
 H        -2.690632        -1.835151        -0.482282
 H        -0.686780        -2.096118         0.471820
 H         0.091455        -1.773795        -1.037885
 H        -1.543531         1.263223         0.853232
 H        -0.218069         2.105162        -0.108485
 H        -2.242625         2.315204        -1.369897
 H        -1.054059         1.373454        -2.142636
