19
Iteration:  1000charge 0 multiplicity 1
 O        -3.908159         0.394192        -1.177589
 C        -2.600593         0.056415        -1.563634
 C        -2.544998        -1.191656        -2.344107
 C        -1.965081        -1.175961        -0.912215
 C        -0.475828        -1.327416        -0.662063
 C         0.016293        -0.034890         0.077985
 O         1.035976        -0.063190         0.697103
 C        -0.900946         1.239716        -0.220707
 C        -1.644034         1.315580        -1.559458
 H        -4.095049         0.960991        -0.337835
 H        -3.465789        -1.754858        -2.554400
 H        -1.864978        -1.438157        -3.187005
 H        -2.460227        -1.717004        -0.071950
 H        -0.320780        -2.069395         0.132260
 H         0.109132        -1.444478        -1.604611
 H        -1.558090         1.151911         0.656784
 H        -0.300012         2.134123         0.009230
 H        -2.461949         2.083262        -1.627976
 H        -0.809262         1.497349        -2.294293
