19
Iteration:  1601
 O        -4.033192         0.283437        -1.498240
 C        -2.566680         0.116357        -1.426854
 C        -1.928258        -0.827933        -2.299765
 C        -2.098946        -1.266126        -0.860352
 C        -0.869686        -1.381368        -0.014087
 C        -0.035038        -0.124646        -0.020279
 O         1.190821        -0.076868        -0.048150
 C        -0.774859         1.166823        -0.139049
 C        -1.887353         1.343930        -1.214689
 H        -4.537051        -0.024565        -0.751358
 H        -2.451843        -1.266863        -3.074628
 H        -0.855893        -0.626774        -2.598951
 H        -2.867205        -2.001097        -0.675099
 H        -1.069283        -1.541762         1.091919
 H        -0.056007        -2.075558        -0.273710
 H        -1.289857         1.250697         0.843267
 H        -0.102586         2.015675        -0.018538
 H        -2.554401         2.172184        -0.822622
 H        -1.372308         1.746186        -2.088618
