19
Iteration:  1781charge 0 multiplicity 1
 O        -4.011542         0.296629        -1.300002
 C        -2.642074         0.055815        -1.434815
 C        -2.056443        -1.039952        -2.363731
 C        -2.162361        -1.303617        -0.864357
 C        -0.780010        -1.335571        -0.201732
 C         0.016312         0.010376        -0.096571
 O         1.152877        -0.022945         0.171206
 C        -0.827993         1.267221        -0.070315
 C        -1.718897         1.289959        -1.331283
 H        -4.268524         1.281397        -1.588962
 H        -2.667141        -1.758059        -2.955094
 H        -0.991340        -0.782578        -2.836270
 H        -2.911687        -2.084780        -0.666212
 H        -0.801591        -1.654972         0.912333
 H        -0.118487        -2.121303        -0.644760
 H        -1.516308         1.042060         0.790860
 H        -0.023979         2.003337         0.159406
 H        -2.323142         2.177603        -1.250650
 H        -1.148740         1.466799        -2.297380
