19
Iteration:  1598
 O        -4.035810         0.273594        -1.511865
 C        -2.574460         0.131764        -1.428241
 C        -1.924855        -0.833134        -2.274250
 C        -2.124944        -1.277160        -0.873302
 C        -0.868980        -1.385335        -0.010405
 C        -0.043492        -0.112855        -0.004492
 O         1.221515        -0.083959        -0.045648
 C        -0.782266         1.179781        -0.155558
 C        -1.876869         1.339781        -1.204922
 H        -4.370931        -0.033694        -0.671483
 H        -2.486559        -1.212885        -3.147570
 H        -0.937352        -0.559751        -2.663218
 H        -2.904392        -2.065003        -0.711807
 H        -1.064111        -1.480734         1.052259
 H        -0.079370        -2.114983        -0.245482
 H        -1.303728         1.143922         0.895439
 H        -0.100758         2.116692        -0.102686
 H        -2.534534         2.138841        -0.789513
 H        -1.402760         1.796186        -2.092568
