19
Iteration:  3177charge 0 multiplicity 1
 O        -4.021126         0.245684        -1.758897
 C        -2.612619         0.100475        -1.382837
 C        -1.764698        -0.893170        -2.292045
 C        -2.054251        -1.296227        -0.753077
 C        -0.825563        -1.347675         0.198464
 C        -0.016622        -0.058866        -0.081825
 O         1.137086        -0.179706        -0.407450
 C        -0.803069         1.239689         0.028799
 C        -2.022707         1.420228        -0.964594
 H        -4.437821         0.469719        -0.887204
 H        -2.301672        -1.361082        -3.022629
 H        -0.687215        -0.627095        -2.462226
 H        -2.913183        -2.019994        -0.558023
 H        -1.050146        -1.513452         1.240682
 H        -0.018466        -2.050825        -0.020263
 H        -1.044940         1.367151         1.050333
 H        -0.128622         1.994503        -0.303356
 H        -2.836271         2.006171        -0.433190
 H        -1.807034         1.977184        -1.806090
