19
Iteration:  2571charge 0 multiplicity 1
 O        -3.902301         0.385834        -1.230267
 C        -2.553417         0.004546        -1.477488
 C        -2.146219        -1.116837        -2.415853
 C        -2.085918        -1.307282        -0.880980
 C        -0.730338        -1.276387        -0.257218
 C        -0.042691         0.000466         0.042929
 O         1.146400         0.046187         0.091728
 C        -0.956014         1.151157         0.003437
 C        -1.690440         1.269700        -1.323433
 H        -4.070959         1.105359        -1.903235
 H        -3.034233        -1.634103        -2.903412
 H        -1.361767        -0.839154        -3.047175
 H        -2.991676        -1.831510        -0.506546
 H        -0.980182        -1.669803         0.793166
 H         0.039883        -1.896520        -0.706382
 H        -1.669833         1.059929         0.805252
 H        -0.458605         2.071564         0.265752
 H        -2.468505         2.118116        -1.391189
 H        -1.006236         1.180339        -2.274157
