19
Iteration:  2164charge 0 multiplicity 1
 O        -4.058244         0.147166        -1.277727
 C        -2.573034         0.072752        -1.452425
 C        -2.045315        -0.935699        -2.537947
 C        -2.058854        -1.229443        -0.975295
 C        -0.832980        -1.284253         0.060239
 C        -0.014736        -0.065893        -0.010105
 O         1.161654        -0.066345         0.137622
 C        -0.683356         1.222875        -0.190402
 C        -1.857217         1.345934        -1.289009
 H        -4.435443         0.948736        -1.535624
 H        -2.685769        -1.580677        -3.076205
 H        -1.001882        -0.649523        -2.930150
 H        -2.776605        -1.989062        -0.694708
 H        -1.251977        -1.272917         1.091517
 H        -0.218670        -2.188873        -0.112310
 H        -1.177997         1.538519         0.764324
 H         0.200447         1.876913        -0.429810
 H        -2.661385         2.021469        -0.722929
 H        -1.422480         1.757071        -2.168356
