19
Iteration:  3888charge 0 multiplicity 1
 O        -3.774390         0.359014        -0.769253
 C        -2.569650        -0.009843        -1.459389
 C        -2.580144        -1.053460        -2.368460
 C        -1.845187        -1.316430        -1.050937
 C        -0.331672        -1.187460        -1.012304
 C        -0.109623         0.027406        -0.011478
 O         0.578539        -0.016689         1.075265
 C        -0.738946         1.314825        -0.464011
 C        -1.644616         1.135980        -1.671779
 H        -3.606175        -0.029725         0.181840
 H        -3.365215        -1.903708        -2.288661
 H        -2.073554        -1.023747        -3.309543
 H        -2.248852        -2.027049        -0.344005
 H         0.111158        -2.124575        -0.708811
 H        -0.053709        -0.920598        -2.056090
 H        -1.271400         1.788110         0.404872
 H         0.107311         2.043601        -0.758725
 H        -2.169373         2.110034        -1.718580
 H        -1.038911         0.963354        -2.588227
