19
Iteration:  3086
 O        -4.017681         0.260053        -1.608984
 C        -2.654128         0.092905        -1.396028
 C        -1.855537        -0.885253        -2.306404
 C        -2.025952        -1.355206        -0.897424
 C        -0.808747        -1.283614         0.089620
 C        -0.046453        -0.005178        -0.049709
 O         1.162605        -0.223659        -0.200351
 C        -0.685730         1.300543        -0.061736
 C        -2.032874         1.371941        -1.033442
 H        -4.510642        -0.229774        -0.838629
 H        -2.378547        -1.483990        -3.091713
 H        -0.887817        -0.463883        -2.722046
 H        -2.740975        -2.163659        -0.802704
 H        -1.268221        -1.264685         1.061547
 H        -0.149980        -2.129695         0.102545
 H        -1.002212         1.559761         0.902446
 H         0.000423         2.066377        -0.450665
 H        -2.743731         1.918500        -0.327364
 H        -1.885542         2.048737        -1.840520
