19
Iteration:  1042
 O        -4.013527         0.409464        -1.251965
 C        -2.555696        -0.034713        -1.395756
 C        -2.440664        -1.043661        -2.490314
 C        -2.120101        -1.294542        -0.912108
 C        -0.610414        -1.286246        -0.491096
 C         0.003730         0.001980         0.083350
 O         1.119184         0.026526         0.515098
 C        -0.829633         1.291494        -0.111512
 C        -1.532648         1.115268        -1.479088
 H        -4.127762         0.473367        -0.245650
 H        -3.326032        -1.520436        -2.864967
 H        -1.575159        -0.869044        -3.119339
 H        -2.857299        -2.019995        -0.510421
 H        -0.515429        -2.078823         0.234505
 H         0.006817        -1.330369        -1.411899
 H        -1.623101         1.520084         0.660685
 H        -0.140029         2.182592        -0.100453
 H        -2.110889         2.050131        -1.686443
 H        -0.961024         0.905134        -2.385736
