19
Iteration:  3765charge 0 multiplicity 1
 O        -3.910822         0.193315        -0.868081
 C        -2.558626         0.009934        -1.349355
 C        -2.574677        -1.149783        -2.329268
 C        -1.881785        -1.253307        -1.033949
 C        -0.395737        -1.121978        -0.896546
 C        -0.020242         0.001656        -0.038464
 O         0.574881        -0.112391         1.010122
 C        -0.562745         1.415300        -0.487732
 C        -1.655447         1.281515        -1.697397
 H        -4.022581         0.266782         0.133237
 H        -3.478546        -1.733827        -2.398672
 H        -2.014694        -1.024543        -3.255069
 H        -2.489795        -1.968607        -0.431426
 H         0.179466        -2.057026        -0.541774
 H        -0.038130        -0.750295        -1.858859
 H        -0.847391         1.864688         0.512021
 H         0.430255         1.889171        -0.703474
 H        -2.196435         2.120997        -1.889971
 H        -0.939759         1.172702        -2.599694
