19
Iteration:   383
 O        -3.917284         0.153563        -1.263141
 C        -2.504821         0.081215        -1.552193
 C        -2.173845        -1.060033        -2.394175
 C        -2.106343        -1.154087        -0.830483
 C        -0.854574        -1.300459         0.095647
 C        -0.028731        -0.077394        -0.014326
 O         1.189572        -0.058540        -0.091983
 C        -0.890035         1.233507        -0.018439
 C        -1.671216         1.420640        -1.417834
 H        -4.277745         0.855906        -2.019208
 H        -2.853742        -1.640828        -2.970036
 H        -1.117176        -0.958045        -2.830237
 H        -2.988978        -1.612603        -0.398756
 H        -1.291125        -1.387096         1.125318
 H        -0.326202        -2.279646         0.037825
 H        -1.736949         1.000278         0.725107
 H        -0.279873         2.089032         0.315588
 H        -2.323725         2.310896        -1.235885
 H        -0.961785         1.654375        -2.286499
