19
Iteration:  4605charge 0 multiplicity 1
 O        -4.075804         0.081719        -1.267915
 C        -2.634590         0.072899        -1.292290
 C        -2.068935        -0.699821        -2.456722
 C        -2.084989        -1.286929        -1.065902
 C        -0.721195        -1.415714        -0.300487
 C         0.013026        -0.020756        -0.116113
 O         1.040906        -0.109086         0.628568
 C        -0.496505         1.300814        -0.794354
 C        -1.976375         1.446027        -0.898602
 H        -4.419791        -0.680332        -0.885400
 H        -2.711393        -1.151884        -3.294822
 H        -1.082872        -0.559127        -2.902219
 H        -2.883253        -2.023410        -0.823426
 H        -0.643408        -1.812077         0.737590
 H         0.056046        -2.096044        -0.862781
 H         0.026977         2.077772        -0.248643
 H        -0.020805         1.276760        -1.767198
 H        -2.383887         1.685329         0.086531
 H        -2.317049         2.241680        -1.492710
