19
Iteration:  1650
 O        -3.901269         0.326727        -1.501472
 C        -2.544587         0.065571        -1.387873
 C        -2.136013        -1.032497        -2.520178
 C        -2.197902        -1.234102        -0.878521
 C        -0.844013        -1.247603        -0.028130
 C        -0.002344        -0.005709         0.050414
 O         1.223780        -0.030647        -0.120037
 C        -0.872757         1.202399         0.100978
 C        -1.730503         1.254446        -1.191846
 H        -4.414378        -0.506770        -1.207818
 H        -2.833414        -1.464829        -3.315354
 H        -1.151780        -0.948953        -2.970344
 H        -2.866903        -1.969076        -0.376906
 H        -1.047937        -1.318412         1.040876
 H        -0.223850        -2.100252        -0.289588
 H        -1.386323         1.060389         1.019453
 H        -0.320249         2.091793         0.365395
 H        -2.360386         2.011926        -0.843780
 H        -1.174901         1.663771        -2.026845
