19
Iteration:  2433charge 0 multiplicity 1
 O        -4.211610         0.330785        -1.526460
 C        -2.609783         0.061605        -1.454039
 C        -2.049252        -1.063564        -2.319620
 C        -2.060108        -1.261727        -0.863235
 C        -0.744598        -1.268179        -0.155563
 C         0.082275        -0.004676        -0.054796
 O         1.255558        -0.131460         0.161383
 C        -0.707990         1.317490        -0.115935
 C        -1.872935         1.346751        -1.167816
 H        -4.788967        -0.446495        -1.501394
 H        -2.662745        -1.884900        -2.896993
 H        -1.113864        -0.835975        -2.838178
 H        -2.812195        -1.892983        -0.313256
 H        -0.965298        -1.720559         0.800129
 H        -0.028727        -1.893563        -0.772376
 H        -1.183059         1.233428         0.883131
 H        -0.032642         2.216569         0.090222
 H        -2.560585         2.008111        -0.745213
 H        -1.568371         1.779955        -2.094373
