19
Iteration:  1347charge 0 multiplicity 1
 O        -3.913248         0.310023        -1.808419
 C        -2.593548         0.067168        -1.365905
 C        -1.872982        -1.019435        -2.309331
 C        -2.078931        -1.292967        -0.745387
 C        -0.928745        -1.236863         0.102531
 C        -0.057802        -0.065110        -0.119599
 O         1.142695        -0.153253        -0.365749
 C        -0.774433         1.219277         0.083461
 C        -1.877755         1.352822        -0.913755
 H        -4.435343         0.611799        -1.115591
 H        -2.438364        -1.725069        -2.910344
 H        -0.857447        -0.737416        -2.627351
 H        -2.866369        -1.988909        -0.583846
 H        -1.263093        -1.147951         1.191102
 H        -0.306837        -2.130602         0.132543
 H        -1.157487         1.314243         1.166143
 H        -0.287819         2.199851        -0.187072
 H        -2.655982         1.902806        -0.240676
 H        -1.749131         2.165410        -1.654027
