19
Iteration:  3075
 O        -4.039210         0.179883        -1.590419
 C        -2.606328        -0.009105        -1.351375
 C        -1.868715        -0.840343        -2.310518
 C        -2.029308        -1.305344        -0.919967
 C        -0.985500        -1.292018         0.077143
 C        -0.020554        -0.093862        -0.095139
 O         1.211407        -0.138671        -0.175140
 C        -0.701361         1.326191        -0.119147
 C        -1.925206         1.450232        -0.998374
 H        -4.596351        -0.241120        -0.870722
 H        -2.418365        -1.380328        -3.082378
 H        -0.770538        -0.552747        -2.514468
 H        -2.826056        -1.967894        -0.686172
 H        -1.315922        -1.346538         1.089956
 H        -0.341575        -2.118791        -0.159920
 H        -0.960520         1.520234         0.879476
 H         0.193545         1.958252        -0.281749
 H        -2.805288         1.905492        -0.434799
 H        -1.830790         2.009289        -1.899338
