19
Iteration:   192charge 0 multiplicity 1
 O        -4.011187         0.082785        -1.618606
 C        -2.638972         0.102195        -1.406528
 C        -1.982670        -0.927273        -2.244005
 C        -2.119257        -1.250773        -0.715680
 C        -0.866749        -1.293006         0.047168
 C        -0.055345        -0.034197        -0.075905
 O         1.133463        -0.230846        -0.183847
 C        -0.725619         1.394653        -0.031435
 C        -1.741420         1.475718        -1.230424
 H        -4.369571         0.109750        -0.683227
 H        -2.490928        -1.501675        -2.990293
 H        -0.983232        -0.567750        -2.515658
 H        -2.877603        -1.939597        -0.461671
 H        -1.042254        -1.383901         1.125087
 H        -0.266635        -2.170474        -0.267798
 H        -1.230996         1.494241         0.913042
 H        -0.004513         2.239699        -0.095416
 H        -2.482836         2.106777        -0.941675
 H        -1.213575         1.643796        -2.178634
