19
Iteration:  2430charge 0 multiplicity 1
 O        -4.212881         0.348698        -1.528810
 C        -2.637905         0.040359        -1.461270
 C        -2.054232        -1.069957        -2.335019
 C        -2.049295        -1.250012        -0.855993
 C        -0.724897        -1.270581        -0.118452
 C         0.061248        -0.011003        -0.077737
 O         1.265619        -0.128971         0.157006
 C        -0.706842         1.296792        -0.090951
 C        -1.870759         1.355009        -1.194105
 H        -4.678833        -0.465947        -1.440907
 H        -2.605470        -1.854596        -2.919929
 H        -1.095432        -0.789474        -2.772254
 H        -2.830505        -1.912816        -0.414007
 H        -0.904935        -1.706134         0.845265
 H        -0.104441        -1.845884        -0.797769
 H        -1.180998         1.299100         0.937979
 H        -0.045734         2.201657         0.058206
 H        -2.655762         1.971709        -0.695699
 H        -1.512068         1.784129        -2.052340
