19
Iteration:  2636
 O        -3.962898         0.442552        -1.326046
 C        -2.556612         0.019225        -1.501175
 C        -2.295377        -1.170522        -2.476883
 C        -2.086093        -1.344105        -0.932474
 C        -0.688390        -1.360232        -0.264268
 C         0.016383         0.040052         0.008094
 O         1.225425         0.042669         0.202876
 C        -0.893194         1.276139         0.045482
 C        -1.731058         1.296857        -1.276510
 H        -4.552527        -0.210960        -1.593883
 H        -3.302361        -1.512338        -2.668139
 H        -1.581026        -1.067246        -3.248146
 H        -2.886158        -1.925433        -0.430103
 H        -0.617313        -1.820460         0.769855
 H         0.061610        -2.001237        -0.751888
 H        -1.573666         1.169878         0.886614
 H        -0.246325         2.142918         0.175459
 H        -2.427940         2.191976        -1.191739
 H        -0.819730         1.470720        -1.997846
