19
Iteration:  1971
 O        -3.932412         0.362362        -1.302420
 C        -2.565582         0.029447        -1.468438
 C        -2.107655        -1.071671        -2.398012
 C        -2.119394        -1.268361        -0.877693
 C        -0.839430        -1.422966        -0.095631
 C        -0.048903        -0.030500         0.002817
 O         1.145832         0.143630        -0.023398
 C        -0.933869         1.163494         0.078344
 C        -1.611580         1.255623        -1.323028
 H        -4.168595         1.170423        -1.892817
 H        -2.865317        -1.735532        -2.802942
 H        -1.242656        -0.842924        -3.044819
 H        -2.861867        -1.979911        -0.567838
 H        -0.880153        -1.782721         0.958770
 H        -0.164448        -2.065003        -0.688027
 H        -1.685880         1.142631         0.937203
 H        -0.193798         1.984868         0.124568
 H        -2.110117         2.153930        -1.422488
 H        -1.087603         1.281949        -2.201307
