19
Iteration:  4378charge 0 multiplicity 1
 O        -3.971048         0.125446        -1.697109
 C        -2.634473         0.026107        -1.308882
 C        -1.772725        -0.781090        -2.290540
 C        -2.019917        -1.213718        -0.843345
 C        -0.929287        -1.319763         0.206582
 C        -0.042501        -0.109204        -0.110059
 O         1.137197        -0.084065        -0.476226
 C        -0.776618         1.228726         0.050700
 C        -1.982742         1.344648        -0.916371
 H        -4.444521         0.561375        -0.886881
 H        -2.234349        -1.406276        -3.042294
 H        -0.766509        -0.275968        -2.602385
 H        -2.701305        -2.077726        -0.834018
 H        -1.234080        -1.335128         1.268570
 H        -0.451766        -2.226523        -0.026527
 H        -1.042684         1.370821         1.117205
 H         0.011005         1.994219        -0.207392
 H        -2.778555         1.959425        -0.477476
 H        -1.679400         1.934419        -1.819296
