19
Iteration:  4426
 O        -4.042246         0.132536        -1.676596
 C        -2.643758         0.068766        -1.358593
 C        -1.834918        -0.853553        -2.308204
 C        -2.114457        -1.253708        -0.866429
 C        -0.877623        -1.265274        -0.040226
 C         0.035587        -0.032973        -0.153690
 O         1.233388        -0.182091        -0.193331
 C        -0.647454         1.324312        -0.065313
 C        -2.076099         1.374115        -0.832507
 H        -4.376516        -0.236967        -0.837213
 H        -2.559242        -1.424282        -2.961887
 H        -0.884422        -0.625792        -2.695493
 H        -2.786549        -2.115869        -0.691027
 H        -1.190327        -1.098877         1.078449
 H        -0.240390        -2.230501        -0.071921
 H        -0.883977         1.403692         1.042439
 H         0.018163         2.176146        -0.306019
 H        -2.838853         1.808141        -0.212168
 H        -1.971309         2.070274        -1.749841
