19
Iteration:  4923charge 0 multiplicity 1
 O        -4.150685         0.003085        -1.080343
 C        -2.674352         0.097574        -1.252201
 C        -2.081730        -0.545879        -2.545294
 C        -1.992901        -1.245267        -1.199671
 C        -0.704129        -1.358392        -0.343347
 C         0.045886        -0.111090        -0.085748
 O         0.912703        -0.054374         0.716353
 C        -0.368844         1.146939        -0.870462
 C        -1.940790         1.387808        -0.808031
 H        -4.435222         0.062621        -2.010600
 H        -2.831223        -0.791041        -3.369939
 H        -1.103295        -0.245229        -3.084609
 H        -2.681946        -2.084387        -1.085418
 H        -0.865661        -1.940114         0.614038
 H         0.068877        -1.960473        -1.034527
 H         0.266918         1.973800        -0.556185
 H        -0.074223         0.728057        -1.956427
 H        -2.192901         1.626026         0.187442
 H        -2.318372         2.264985        -1.379411
