19
Iteration:  3070charge 0 multiplicity 1
 O        -4.036360         0.127704        -1.584766
 C        -2.572568         0.005798        -1.348653
 C        -1.857003        -0.829754        -2.341387
 C        -2.107039        -1.246892        -0.904468
 C        -1.013832        -1.309715         0.075398
 C        -0.032531        -0.121270        -0.110195
 O         1.243025        -0.103831        -0.161945
 C        -0.691332         1.328093        -0.160313
 C        -1.917027         1.444690        -0.948505
 H        -4.557097        -0.243394        -0.823565
 H        -2.430552        -1.274326        -3.163939
 H        -0.841247        -0.582030        -2.537983
 H        -2.821029        -2.088576        -0.669382
 H        -1.358296        -1.353979         1.159102
 H        -0.386756        -2.217007        -0.150944
 H        -0.944565         1.456558         0.979012
 H         0.138664         2.039358        -0.289323
 H        -2.699591         2.004896        -0.497951
 H        -1.670750         1.900139        -2.017127
