19
Iteration:  3523
 O        -4.050067         0.291480        -1.177839
 C        -2.619282         0.036632        -1.513913
 C        -2.312453        -1.096997        -2.446499
 C        -2.019849        -1.223540        -0.989168
 C        -0.610750        -1.356303        -0.421389
 C         0.000284        -0.019127         0.107319
 O         1.178160         0.049356         0.382873
 C        -0.914953         1.287944        -0.087749
 C        -1.675249         1.261570        -1.410985
 H        -4.005926         0.752132        -0.243889
 H        -3.138514        -1.754068        -2.822228
 H        -1.708543        -0.813436        -3.275186
 H        -2.809879        -1.818324        -0.519217
 H        -0.458837        -2.282557         0.161659
 H         0.144705        -1.485220        -1.208974
 H        -1.463737         1.081896         0.788142
 H        -0.261208         2.087635         0.130491
 H        -2.176191         2.162779        -1.617804
 H        -0.911572         1.216821        -2.307291
