19
Iteration:  3018charge 0 multiplicity 1
 O        -4.074320         0.226265        -1.608801
 C        -2.683485         0.031043        -1.411669
 C        -1.953362        -0.872995        -2.323109
 C        -2.057899        -1.335515        -0.918734
 C        -0.841674        -1.313581         0.048289
 C         0.099552         0.009939        -0.087162
 O         1.278507        -0.194141        -0.058628
 C        -0.732378         1.327244        -0.081382
 C        -2.041339         1.353713        -1.035944
 H        -4.359174         0.763776        -0.918464
 H        -2.570533        -1.567865        -2.957886
 H        -0.944568        -0.618312        -2.849028
 H        -2.862507        -2.025843        -0.714213
 H        -0.991959        -1.558585         1.096732
 H        -0.048250        -1.990136        -0.266673
 H        -1.024981         1.415234         0.929597
 H         0.035904         2.152521        -0.313478
 H        -2.803649         1.896574        -0.414871
 H        -1.732753         1.890549        -2.009245
