19
Iteration:  4077
 O        -3.959411         0.419511        -1.145433
 C        -2.651352        -0.041813        -1.520375
 C        -2.501826        -1.140761        -2.493607
 C        -1.969031        -1.341345        -0.994709
 C        -0.487034        -1.317796        -0.515139
 C         0.014849         0.045361        -0.013215
 O         1.114418         0.078786         0.540647
 C        -0.882394         1.296332        -0.058838
 C        -1.640786         1.216742        -1.428825
 H        -4.030328         0.094697        -0.203545
 H        -3.368196        -1.772968        -2.836618
 H        -2.073226        -0.812300        -3.400042
 H        -2.758931        -1.888867        -0.459076
 H        -0.421821        -2.059304         0.261918
 H         0.131743        -1.600513        -1.401776
 H        -1.591429         1.178139         0.803740
 H        -0.231906         2.237589         0.142963
 H        -2.326448         2.148923        -1.523235
 H        -0.959593         1.189766        -2.191568
