19
Iteration:  4736
 O        -4.049437         0.142486        -0.998144
 C        -2.681681         0.065375        -1.255977
 C        -2.211826        -0.540679        -2.475754
 C        -1.920344        -1.310305        -1.165361
 C        -0.510954        -1.455122        -0.510088
 C         0.034340        -0.062442        -0.120145
 O         0.667799         0.041599         0.922631
 C        -0.391091         1.098329        -1.009993
 C        -1.861082         1.305460        -0.899202
 H        -4.492560        -0.283807        -1.778220
 H        -2.987063        -1.146239        -3.079894
 H        -1.432460        -0.054731        -3.117509
 H        -2.596750        -2.183102        -1.074992
 H        -0.471640        -2.119090         0.313926
 H         0.118961        -1.793793        -1.295233
 H         0.180762         1.985664        -0.717519
 H        -0.069278         0.845556        -2.064410
 H        -2.158673         1.638543         0.123502
 H        -2.054087         2.239233        -1.611044
