19
Iteration:  3158
 O        -3.899579         0.062583        -1.757558
 C        -2.625085         0.119401        -1.337091
 C        -1.835301        -0.862683        -2.164425
 C        -2.113578        -1.181561        -0.754745
 C        -0.861165        -1.303488         0.036701
 C        -0.002276        -0.084155        -0.065677
 O         1.141877        -0.221634        -0.375825
 C        -0.750474         1.315492        -0.026855
 C        -2.028985         1.431186        -0.928240
 H        -4.458471         0.693912        -1.171245
 H        -2.360092        -1.298041        -2.946291
 H        -0.813240        -0.510666        -2.506278
 H        -2.883345        -1.939748        -0.757956
 H        -1.184072        -1.463823         1.108902
 H        -0.309409        -2.250042        -0.228877
 H        -1.246375         1.272548         0.998671
 H         0.037480         2.123936        -0.058719
 H        -2.795630         1.899508        -0.400783
 H        -1.819455         2.072452        -1.843433
