19
Iteration:  4937charge 0 multiplicity 1
 O        -4.070275        -0.002652        -1.108407
 C        -2.703971         0.136503        -1.363456
 C        -2.105712        -0.514835        -2.546594
 C        -1.966094        -1.229982        -1.159109
 C        -0.736098        -1.358845        -0.325432
 C        -0.024231        -0.042936        -0.018515
 O         1.041676        -0.136609         0.700242
 C        -0.462374         1.117450        -0.886981
 C        -1.948340         1.378921        -0.804095
 H        -4.691124        -0.095647        -1.905864
 H        -2.761566        -1.211823        -3.223278
 H        -1.270989         0.043480        -2.920195
 H        -2.745185        -2.030564        -1.017405
 H        -0.866107        -1.974049         0.634491
 H         0.054165        -1.923357        -0.808547
 H         0.021030         1.989567        -0.571466
 H        -0.100105         1.011921        -1.956650
 H        -2.246740         1.567653         0.266807
 H        -2.143805         2.288083        -1.479156
