19
Iteration:  2006charge 0 multiplicity 1
 O        -3.812473         0.300966        -1.169419
 C        -2.509584         0.079689        -1.524189
 C        -2.115158        -1.117899        -2.445899
 C        -2.038130        -1.239497        -0.913353
 C        -0.845274        -1.334817        -0.076307
 C        -0.108043         0.032438        -0.055411
 O         1.119950        -0.030592        -0.058698
 C        -1.030857         1.249943         0.133252
 C        -1.634252         1.313885        -1.362437
 H        -4.408072         0.667226        -1.964006
 H        -2.912285        -1.697565        -2.810999
 H        -1.211349        -0.981718        -3.113380
 H        -2.935412        -1.817667        -0.693327
 H        -1.143778        -1.629904         0.969190
 H        -0.219436        -2.174956        -0.422997
 H        -1.912448         1.247304         0.775296
 H        -0.404090         2.097243         0.368818
 H        -2.223585         2.183744        -1.529385
 H        -0.728973         1.257501        -1.790972
