19
Iteration:  2983charge 0 multiplicity 1
 O        -3.977464         0.214043        -1.632794
 C        -2.575380         0.095895        -1.340660
 C        -2.009804        -0.941303        -2.340139
 C        -2.146510        -1.331091        -0.895509
 C        -0.891000        -1.368695        -0.020689
 C         0.059694        -0.097095        -0.180755
 O         1.235250         0.045823        -0.031023
 C        -0.703504         1.230022        -0.061583
 C        -1.946332         1.367629        -0.969357
 H        -4.448716         0.513587        -0.907988
 H        -2.836245        -1.578201        -2.875516
 H        -1.096732        -0.948762        -2.817595
 H        -3.067948        -1.908662        -0.602927
 H        -1.099293        -1.615640         1.021459
 H        -0.244722        -2.159708        -0.478031
 H        -0.906503         1.292805         1.036971
 H        -0.004900         2.034392        -0.275864
 H        -2.737018         2.027620        -0.627923
 H        -1.684372         1.998765        -1.959596
