19
Iteration:  2251charge 0 multiplicity 1
 O        -3.943420         0.364882        -1.569692
 C        -2.587214         0.061176        -1.433974
 C        -2.116831        -1.038176        -2.226603
 C        -2.159548        -1.314611        -0.779408
 C        -0.780954        -1.390636        -0.052784
 C        -0.009928        -0.050907        -0.055065
 O         1.225967         0.073356        -0.134036
 C        -0.825626         1.195555         0.002945
 C        -1.774982         1.310310        -1.127072
 H        -4.186529        -0.217377        -2.311279
 H        -2.738236        -1.394161        -3.110417
 H        -1.183312        -0.826324        -2.712213
 H        -3.129940        -1.710604        -0.521427
 H        -0.869538        -1.495602         1.070817
 H        -0.185173        -2.306493        -0.280251
 H        -1.497504         0.824334         0.925199
 H        -0.363967         2.144371         0.387147
 H        -2.465259         2.204748        -0.886322
 H        -1.396634         1.778438        -2.044026
