19
Iteration:  4063
 O        -3.914016         0.402763        -1.115194
 C        -2.616736         0.000052        -1.445755
 C        -2.547541        -1.154829        -2.476688
 C        -2.010643        -1.332309        -1.084334
 C        -0.545136        -1.231962        -0.616087
 C        -0.035526         0.078128         0.093571
 O         1.161130         0.051923         0.564369
 C        -0.906714         1.249661        -0.060985
 C        -1.656087         1.178713        -1.489764
 H        -4.224467         0.249994        -0.241333
 H        -3.464061        -1.619467        -2.684800
 H        -1.552152        -1.197863        -3.104956
 H        -2.438346        -2.123113        -0.444029
 H        -0.266972        -1.939513         0.143378
 H         0.274612        -1.404259        -1.390244
 H        -1.639860         1.308134         0.730322
 H        -0.327456         2.195650        -0.017032
 H        -2.194667         2.067154        -1.682230
 H        -0.865987         1.027828        -2.313516
