19
Iteration:  3802charge 0 multiplicity 1
 O        -3.838114         0.308675        -0.781426
 C        -2.618261        -0.012510        -1.373134
 C        -2.532276        -1.156260        -2.395188
 C        -1.871559        -1.280028        -1.063212
 C        -0.291682        -1.170945        -0.939577
 C        -0.000434        -0.007042        -0.047412
 O         0.478210        -0.057808         1.037203
 C        -0.597399         1.345190        -0.471584
 C        -1.686691         1.252154        -1.642918
 H        -3.671216         0.469753         0.141480
 H        -3.416804        -1.848356        -2.488384
 H        -2.000343        -0.893592        -3.318971
 H        -2.399278        -1.990746        -0.445077
 H         0.090248        -2.121300        -0.672518
 H         0.197495        -0.963332        -1.899286
 H        -0.885687         1.829665         0.460006
 H         0.116249         2.037537        -0.990165
 H        -2.534296         2.061769        -1.873443
 H        -1.140845         1.036549        -2.557327
