19
Iteration:  2614charge 0 multiplicity 1
 O        -3.933219         0.365912        -1.332855
 C        -2.621693         0.101511        -1.467589
 C        -2.332244        -1.094295        -2.417111
 C        -2.068274        -1.191150        -0.897725
 C        -0.676562        -1.339772        -0.281564
 C        -0.011579        -0.050374         0.132001
 O         1.172271         0.134075         0.113417
 C        -0.879858         1.164838         0.061335
 C        -1.627618         1.195604        -1.335129
 H        -4.429688        -0.268702        -1.975724
 H        -3.229915        -1.522284        -2.896758
 H        -1.439620        -0.950895        -2.931702
 H        -2.763819        -1.822974        -0.312678
 H        -0.857285        -2.037162         0.599108
 H        -0.039631        -2.001476        -0.873506
 H        -1.694842         1.121608         0.790262
 H        -0.250307         2.013557         0.252852
 H        -2.210822         2.189020        -1.217923
 H        -0.853663         1.137773        -2.242970
