19
Iteration:   379charge 0 multiplicity 1
 O        -3.931472         0.158959        -1.306434
 C        -2.507831         0.102904        -1.492174
 C        -2.129159        -1.067711        -2.368910
 C        -2.112011        -1.175764        -0.843638
 C        -0.899606        -1.300500         0.089150
 C        -0.028490        -0.079260        -0.014362
 O         1.190060        -0.048046        -0.105131
 C        -0.884185         1.219216        -0.026529
 C        -1.657455         1.442261        -1.407483
 H        -4.246293         0.839622        -1.776754
 H        -2.901498        -1.691642        -2.875055
 H        -1.142892        -0.910988        -2.774778
 H        -2.976130        -1.720090        -0.371864
 H        -1.325681        -1.449852         1.108686
 H        -0.212658        -2.146324        -0.132813
 H        -1.629570         1.074289         0.733953
 H        -0.287677         2.055806         0.295476
 H        -2.360117         2.257779        -1.312323
 H        -0.986342         1.498186        -2.344000
