19
Iteration:  2667
 O        -4.018790         0.423904        -1.247413
 C        -2.661952         0.055742        -1.506747
 C        -2.091679        -0.995337        -2.418837
 C        -2.104991        -1.309343        -0.851910
 C        -0.647888        -1.343563        -0.283847
 C         0.010018        -0.006065        -0.041613
 O         1.176534        -0.000494         0.276637
 C        -0.882091         1.174624        -0.119097
 C        -1.715305         1.263990        -1.367855
 H        -4.584516        -0.449658        -1.072962
 H        -2.923959        -1.607736        -2.995935
 H        -1.264806        -0.769464        -3.042503
 H        -2.978621        -1.832083        -0.398277
 H        -0.663943        -1.651751         0.797316
 H        -0.154571        -2.110105        -0.895485
 H        -1.530242         1.230811         0.840541
 H        -0.277646         2.051217        -0.031489
 H        -2.422652         2.054632        -1.112356
 H        -1.154876         1.518426        -2.267721
