19
Iteration:  1116charge 0 multiplicity 1
 O        -4.027371         0.285727        -1.302506
 C        -2.608370         0.055310        -1.491090
 C        -2.316821        -1.026009        -2.508422
 C        -2.098108        -1.198024        -0.908485
 C        -0.658177        -1.351821        -0.230152
 C         0.024730        -0.083597         0.068459
 O         1.200494        -0.012072         0.305439
 C        -0.872416         1.275877        -0.040195
 C        -1.624102         1.275312        -1.471738
 H        -4.213115         0.523070        -0.276767
 H        -3.182686        -1.532016        -2.955985
 H        -1.429475        -0.948462        -3.182688
 H        -2.927814        -1.752853        -0.418545
 H        -0.740659        -1.753916         0.815084
 H        -0.099467        -2.034006        -0.917784
 H        -1.564235         1.238436         0.797799
 H        -0.289320         2.245411         0.053887
 H        -2.150751         2.243405        -1.478258
 H        -0.894917         1.307337        -2.297001
