19
Iteration:   347charge 0 multiplicity 1
 O        -4.019901         0.355466        -1.549316
 C        -2.645792        -0.043199        -1.421442
 C        -2.040426        -1.044196        -2.297736
 C        -2.169372        -1.334992        -0.716495
 C        -0.818479        -1.319237        -0.009689
 C        -0.051673        -0.006568        -0.041167
 O         1.170824        -0.034610        -0.170581
 C        -0.770880         1.341886         0.032245
 C        -1.739304         1.206924        -1.192637
 H        -3.990517         1.470080        -1.520716
 H        -2.359573        -1.725313        -3.166412
 H        -1.027527        -0.701534        -2.435102
 H        -2.956992        -2.036847        -0.278745
 H        -0.977053        -1.470819         1.110344
 H        -0.028488        -1.971991        -0.391746
 H        -1.194026         1.626994         0.993092
 H        -0.008018         2.052376        -0.240353
 H        -2.482754         1.959883        -1.375406
 H        -1.130060         1.329201        -2.219456
