19
Iteration:   372charge 0 multiplicity 1
 O        -3.953553         0.180233        -1.362254
 C        -2.545559         0.128067        -1.407409
 C        -2.049462        -1.078553        -2.307462
 C        -2.111853        -1.222338        -0.839771
 C        -0.940213        -1.314410         0.050504
 C        -0.043231        -0.042196        -0.012095
 O         1.183020        -0.039331        -0.125535
 C        -0.862629         1.214851        -0.057716
 C        -1.648065         1.402086        -1.353122
 H        -4.313046         1.030380        -1.651229
 H        -2.839828        -1.608874        -2.778203
 H        -1.063932        -0.977570        -2.898396
 H        -2.959704        -1.830931        -0.502454
 H        -1.251164        -1.499917         1.109569
 H        -0.210478        -2.020443        -0.354438
 H        -1.624336         1.199646         0.804516
 H        -0.192436         2.062243         0.163598
 H        -2.333646         2.271823        -1.462115
 H        -1.029263         1.343550        -2.301383
