19
Iteration:  2933
 O        -4.086698         0.165223        -1.562000
 C        -2.662951         0.099419        -1.448602
 C        -1.981184        -0.882909        -2.362406
 C        -2.195640        -1.244130        -0.853546
 C        -0.781678        -1.322905        -0.009719
 C         0.018794        -0.033246        -0.067988
 O         1.281109        -0.090190        -0.095845
 C        -0.791741         1.270157         0.023939
 C        -1.784616         1.308447        -1.106036
 H        -4.386162         0.140979        -0.569718
 H        -2.620764        -1.487019        -3.103012
 H        -1.097113        -0.432926        -2.854597
 H        -2.895919        -2.069484        -0.749308
 H        -1.086143        -1.481115         1.058527
 H        -0.169443        -2.154343        -0.361569
 H        -1.348283         1.163168         1.002697
 H        -0.191264         2.251565         0.155533
 H        -2.436060         2.215450        -0.993129
 H        -1.292320         1.590284        -1.980548
