19
Iteration:   743
 O        -3.767146         0.354045        -0.795480
 C        -2.602334        -0.035923        -1.515544
 C        -2.751824        -1.045480        -2.504441
 C        -1.895633        -1.296613        -1.128702
 C        -0.398197        -1.222158        -0.794294
 C        -0.064788         0.130939         0.090329
 O         0.645122         0.015078         1.090659
 C        -0.607400         1.284280        -0.483688
 C        -1.585625         1.040657        -1.670294
 H        -3.518963         0.436030         0.070724
 H        -3.685736        -1.634139        -2.319522
 H        -2.427587        -0.981923        -3.549269
 H        -2.565184        -1.948839        -0.509930
 H         0.029963        -2.261259        -0.640718
 H         0.214287        -0.956380        -1.671807
 H        -1.118923         1.816617         0.362799
 H         0.316912         1.853609        -0.807814
 H        -2.068900         2.009521        -1.807822
 H        -0.932133         0.776234        -2.518638
