19
Iteration:  4194charge 0 multiplicity 1
 O        -4.093339         0.241455        -1.406965
 C        -2.664407         0.077911        -1.461553
 C        -2.128927        -0.935345        -2.406687
 C        -2.073230        -1.208140        -0.834665
 C        -0.695745        -1.374482        -0.209851
 C         0.018895        -0.034287        -0.123316
 O         1.261555         0.006311         0.131894
 C        -0.832384         1.208337        -0.039297
 C        -1.828155         1.302629        -1.224776
 H        -4.296349        -0.026515        -0.517615
 H        -2.737594        -1.673159        -3.086992
 H        -1.150985        -0.705340        -2.807793
 H        -2.675017        -2.043929        -0.442839
 H        -0.622509        -1.582502         0.886270
 H         0.056711        -2.098686        -0.562818
 H        -1.518321         1.231433         0.802304
 H        -0.108613         2.037912         0.080698
 H        -2.543809         2.042240        -0.978619
 H        -1.214007         1.698506        -2.174113
