19
Iteration:  4694
 O        -3.973773         0.072889        -1.088347
 C        -2.581381         0.081444        -1.383558
 C        -2.249409        -0.739350        -2.530656
 C        -2.040004        -1.280292        -1.071721
 C        -0.606361        -1.386097        -0.512030
 C         0.063773        -0.064080        -0.094635
 O         0.734715         0.017583         0.838514
 C        -0.382237         1.249505        -0.899034
 C        -1.901563         1.259363        -0.839071
 H        -4.306855         0.926799        -1.165438
 H        -3.122654        -1.171724        -3.237067
 H        -1.332730        -0.411614        -3.170480
 H        -2.772287        -2.078635        -0.867243
 H        -0.381711        -2.018522         0.395970
 H         0.180521        -1.828734        -1.194698
 H         0.100818         2.097659        -0.536901
 H        -0.171835         1.315986        -1.949876
 H        -2.186713         1.428400         0.217354
 H        -2.390986         2.117728        -1.286858
