19
Iteration:  2111
 O        -4.045122         0.120992        -1.457585
 C        -2.587773         0.143234        -1.420347
 C        -2.213512        -0.971632        -2.302682
 C        -2.104220        -1.229848        -0.847871
 C        -0.772396        -1.332299        -0.186141
 C         0.028661        -0.049110        -0.082262
 O         1.216072        -0.049704         0.226595
 C        -0.676484         1.221145        -0.177302
 C        -1.830533         1.407026        -1.166634
 H        -4.500483         0.111514        -2.323270
 H        -2.838401        -1.381710        -3.016859
 H        -1.225247        -0.899279        -2.836558
 H        -2.831510        -1.891269        -0.389387
 H        -0.977908        -1.557923         0.850857
 H        -0.191607        -2.107738        -0.692167
 H        -1.077900         1.406436         0.762224
 H         0.070133         1.999228        -0.331390
 H        -2.504678         2.266364        -0.905836
 H        -1.344670         1.925659        -2.011904
