19
Iteration:  4065charge 0 multiplicity 1
 O        -3.910437         0.405722        -1.127740
 C        -2.628213         0.002517        -1.450440
 C        -2.553072        -1.163250        -2.486075
 C        -2.007233        -1.338408        -1.076768
 C        -0.535997        -1.243990        -0.595414
 C        -0.027031         0.092825         0.084968
 O         1.151399         0.051693         0.558070
 C        -0.895044         1.249882        -0.049251
 C        -1.658539         1.174141        -1.498024
 H        -4.241127         0.215082        -0.166434
 H        -3.483342        -1.667824        -2.737166
 H        -1.620151        -1.091519        -3.101744
 H        -2.397976        -2.122012        -0.419376
 H        -0.263795        -1.982978         0.123928
 H         0.264649        -1.481726        -1.375965
 H        -1.645797         1.294295         0.761285
 H        -0.281460         2.236778         0.009012
 H        -2.179884         2.158747        -1.674307
 H        -0.910756         1.126100        -2.232212
