19
Iteration:   310charge 0 multiplicity 1
 O        -3.946584         0.217513        -1.733072
 C        -2.550146         0.097979        -1.482825
 C        -2.160671        -1.090231        -2.254432
 C        -2.128342        -1.201993        -0.664193
 C        -0.808359        -1.283058         0.075646
 C         0.048589        -0.068833        -0.152629
 O         1.269987        -0.045177        -0.167860
 C        -0.817406         1.175721         0.008087
 C        -1.869135         1.399157        -1.142191
 H        -4.431946         0.866981        -1.065453
 H        -2.991529        -1.582208        -2.718841
 H        -1.133800        -1.100235        -2.747620
 H        -3.011608        -1.560288        -0.208427
 H        -0.952344        -1.157358         1.153191
 H        -0.398531        -2.318907        -0.050369
 H        -1.353181         1.084561         0.953129
 H        -0.087164         1.995373         0.180602
 H        -2.607773         2.041990        -0.603780
 H        -1.334635         1.901267        -1.953021
