19
Iteration:  3962charge 0 multiplicity 1
 O        -3.957483         0.233314        -0.921824
 C        -2.664001        -0.008331        -1.412178
 C        -2.504980        -1.000734        -2.433541
 C        -1.988385        -1.278302        -1.038209
 C        -0.428118        -1.238051        -0.768010
 C        -0.018654        -0.017688        -0.012411
 O         0.813510         0.038531         0.896347
 C        -0.649205         1.345696        -0.394133
 C        -1.622096         1.181186        -1.565616
 H        -3.982445         0.350371         0.022249
 H        -3.268486        -1.862883        -2.567212
 H        -1.771086        -0.808448        -3.180759
 H        -2.472347        -2.062063        -0.489029
 H         0.005446        -2.247379        -0.464152
 H        -0.075842        -0.947789        -1.789252
 H        -1.158103         1.781311         0.464493
 H         0.149441         1.985427        -0.624762
 H        -2.209934         2.013981        -1.723854
 H        -0.986261         0.924964        -2.508155
