19
Iteration:  2359charge 0 multiplicity 1
 O        -3.947474         0.305123        -1.332155
 C        -2.561681         0.097827        -1.431566
 C        -1.933288        -1.074214        -2.439150
 C        -2.025358        -1.168673        -0.978485
 C        -0.880875        -1.278488         0.034770
 C        -0.030918         0.010649         0.051824
 O         1.134686        -0.128618        -0.189913
 C        -0.937304         1.300237         0.097087
 C        -1.789237         1.255208        -1.255252
 H        -4.487279        -0.447332        -1.389915
 H        -2.602284        -1.709723        -3.142554
 H        -0.990975        -0.778403        -2.804628
 H        -2.820905        -1.834264        -0.594761
 H        -1.339079        -1.483489         1.052578
 H        -0.191677        -2.052801        -0.368264
 H        -1.450384         1.313663         1.034780
 H        -0.263154         2.161600         0.151530
 H        -2.470832         2.106975        -1.141924
 H        -1.035188         1.472687        -2.198340
