19
Iteration:  3186
 O        -3.986404         0.284278        -1.727555
 C        -2.637361         0.040568        -1.392257
 C        -1.777239        -0.935865        -2.224334
 C        -2.076371        -1.248155        -0.832906
 C        -0.817313        -1.355890         0.211669
 C        -0.058657        -0.082799        -0.111690
 O         1.148175        -0.099971        -0.409132
 C        -0.736842         1.270260         0.035703
 C        -2.013111         1.344897        -0.936790
 H        -4.578215         0.317500        -0.933470
 H        -2.293539        -1.469785        -3.067940
 H        -0.860514        -0.573126        -2.675103
 H        -2.919214        -1.990745        -0.948328
 H        -1.252717        -1.227633         1.196231
 H        -0.261246        -2.287570         0.162355
 H        -1.060464         1.295958         1.054232
 H         0.017957         2.004011        -0.100594
 H        -2.883159         2.021301        -0.494626
 H        -1.654536         1.840344        -1.823944
