19
Iteration:  3486charge 0 multiplicity 1
 O        -3.935924         0.321305        -1.283892
 C        -2.595500         0.043008        -1.416522
 C        -2.361738        -1.150719        -2.452519
 C        -2.062130        -1.289099        -0.976401
 C        -0.675059        -1.324991        -0.416188
 C         0.042871         0.094743        -0.081832
 O         1.123318         0.077874         0.377926
 C        -0.823316         1.225179        -0.034202
 C        -1.648968         1.261992        -1.308982
 H        -4.365759        -0.041353        -0.410126
 H        -3.385622        -1.329381        -2.698086
 H        -1.631321        -0.826967        -3.262383
 H        -2.715129        -1.993058        -0.397810
 H        -0.716548        -1.904333         0.460547
 H        -0.056560        -1.814441        -1.196059
 H        -1.479085         0.903169         0.856191
 H        -0.460200         2.275212         0.210243
 H        -2.415238         2.097964        -1.504399
 H        -0.844106         1.213005        -2.112986
