19
Iteration:  3594charge 0 multiplicity 1
 O        -4.015831         0.251095        -1.139874
 C        -2.587917         0.034880        -1.551655
 C        -2.415210        -1.041390        -2.438148
 C        -2.030001        -1.234591        -0.975618
 C        -0.603116        -1.285811        -0.570809
 C        -0.032273         0.025812         0.134976
 O         1.153415         0.030046         0.593297
 C        -0.787824         1.287975        -0.171171
 C        -1.663223         1.182367        -1.472616
 H        -4.029031         0.126671        -0.089756
 H        -3.358711        -1.642122        -2.702492
 H        -1.859607        -1.058341        -3.343631
 H        -2.696997        -1.653563        -0.180839
 H        -0.211353        -2.219006        -0.035986
 H        -0.023443        -1.401255        -1.551865
 H        -1.536751         1.431352         0.667622
 H        -0.132596         2.234050        -0.257169
 H        -2.397836         2.107574        -1.656500
 H        -1.083551         1.227761        -2.338314
