19
Iteration:  2935
 O        -4.091868         0.159257        -1.570025
 C        -2.673475         0.108401        -1.447584
 C        -1.982649        -0.898903        -2.356708
 C        -2.179138        -1.223771        -0.845955
 C        -0.795435        -1.310303        -0.018732
 C         0.032381        -0.018884        -0.077641
 O         1.281540        -0.111022        -0.093100
 C        -0.804698         1.277583         0.019082
 C        -1.793484         1.304810        -1.091482
 H        -4.348935         0.130308        -0.573887
 H        -2.550716        -1.464120        -3.006294
 H        -1.070485        -0.446928        -2.857468
 H        -2.793672        -2.096604        -0.744623
 H        -1.087320        -1.564879         1.058900
 H        -0.207256        -2.153041        -0.423604
 H        -1.352941         1.137184         1.039268
 H        -0.202347         2.209019         0.095743
 H        -2.412081         2.213341        -0.976900
 H        -1.214181         1.672158        -1.986036
