19
Iteration:   695charge 0 multiplicity 1
 O        -3.790775         0.315243        -0.931424
 C        -2.629141         0.057944        -1.458289
 C        -2.487032        -1.092354        -2.392983
 C        -1.959437        -1.196471        -0.900727
 C        -0.451342        -1.332472        -0.724818
 C        -0.016743        -0.061836        -0.098924
 O         0.650405        -0.048551         0.898830
 C        -0.696153         1.346914        -0.464603
 C        -1.649090         1.247511        -1.642535
 H        -3.818219         0.565222         0.037779
 H        -3.393354        -1.684306        -2.691920
 H        -1.704017        -0.973174        -3.186248
 H        -2.536242        -1.706003        -0.152202
 H         0.063477        -2.147849        -0.241853
 H         0.065462        -1.475897        -1.692831
 H        -1.187721         1.414946         0.537835
 H         0.143265         2.011631        -0.607755
 H        -2.262364         2.106199        -1.543942
 H        -1.036266         1.271759        -2.505890
