19
Iteration:  4361
 O        -4.031058         0.222634        -1.713036
 C        -2.633349         0.061102        -1.446196
 C        -1.784473        -0.851545        -2.273370
 C        -2.038462        -1.423841        -0.842897
 C        -0.834008        -1.256252         0.209084
 C         0.028594        -0.019219        -0.091361
 O         1.138659        -0.121362        -0.534855
 C        -0.812711         1.230702         0.120180
 C        -1.973963         1.362171        -0.866617
 H        -4.528186         0.604255        -0.891064
 H        -2.216089        -1.305925        -3.156318
 H        -0.798124        -0.518219        -2.416517
 H        -2.813922        -2.178590        -0.787722
 H        -1.420839        -1.124085         1.158493
 H        -0.149081        -2.127585         0.485316
 H        -1.285493         1.052783         1.086783
 H        -0.221149         2.153084         0.135359
 H        -2.704823         2.040553        -0.404552
 H        -1.564571         1.816676        -1.783920
