19
Iteration:  1018charge 0 multiplicity 1
 O        -3.990403         0.336870        -1.224479
 C        -2.615706         0.107163        -1.572647
 C        -2.483923        -1.190032        -2.362468
 C        -2.049855        -1.192523        -0.948139
 C        -0.566789        -1.295084        -0.592678
 C         0.076214         0.010632         0.000707
 O         1.093931        -0.008543         0.654520
 C        -0.840139         1.216765        -0.099351
 C        -1.587769         1.236130        -1.493894
 H        -3.999902         0.588726        -0.198974
 H        -3.522217        -1.581913        -2.574349
 H        -1.791412        -1.175989        -3.130164
 H        -2.776772        -1.573705        -0.234080
 H        -0.498405        -2.061626         0.181763
 H        -0.007663        -1.391348        -1.547941
 H        -1.672260         1.321646         0.633511
 H        -0.107646         2.045074         0.139267
 H        -1.952460         2.243825        -1.730399
 H        -1.075396         0.897287        -2.377223
