19
Iteration:  3755charge 0 multiplicity 1
 O        -3.902220         0.228143        -0.868612
 C        -2.575059         0.066593        -1.373376
 C        -2.582509        -1.202359        -2.442526
 C        -1.868531        -1.240167        -1.025026
 C        -0.394160        -1.185011        -0.915263
 C        -0.052753        -0.010679        -0.004517
 O         0.619818        -0.045881         1.032200
 C        -0.571588         1.361456        -0.492610
 C        -1.658176         1.263818        -1.583271
 H        -3.771909         0.466539         0.136272
 H        -3.520865        -1.688985        -2.587698
 H        -1.941948        -1.263764        -3.349281
 H        -2.208878        -1.674293        -0.076149
 H         0.151937        -2.185426        -0.802576
 H        -0.075599        -0.885062        -1.902435
 H        -1.053259         1.796809         0.437816
 H         0.291899         2.028709        -0.815787
 H        -2.243011         2.136254        -1.740595
 H        -1.258126         0.986056        -2.629048
