19
Iteration:  4564charge 0 multiplicity 1
 O        -4.147534         0.267576        -1.406425
 C        -2.747647         0.022309        -1.389126
 C        -2.053488        -0.726870        -2.562694
 C        -2.018605        -1.363278        -1.116739
 C        -0.797700        -1.311879        -0.117086
 C         0.082590        -0.056585        -0.036172
 O         1.226128         0.019947         0.488280
 C        -0.485671         1.206707        -0.774984
 C        -2.016324         1.235543        -0.662208
 H        -4.623151        -0.326652        -0.759555
 H        -2.756036        -1.294548        -3.405089
 H        -1.030691        -0.443731        -2.910810
 H        -2.543048        -2.343783        -1.041313
 H        -1.453163        -1.416197         0.834980
 H        -0.104478        -2.200902        -0.202252
 H        -0.101637         2.093428        -0.371406
 H        -0.263314         1.249052        -1.892072
 H        -2.166224         1.072531         0.485069
 H        -2.337451         2.225211        -0.928429
