19
Iteration:    96
 O        -4.084618         0.147952        -1.600455
 C        -2.599193         0.096297        -1.398117
 C        -1.975053        -0.992076        -2.271877
 C        -2.137531        -1.239657        -0.756004
 C        -0.876110        -1.323213         0.041882
 C        -0.006633        -0.030998        -0.089478
 O         1.183685        -0.088837        -0.031464
 C        -0.654802         1.274733        -0.208270
 C        -1.812208         1.431549        -1.161228
 H        -4.494451         0.116165        -0.656623
 H        -2.683974        -1.261468        -3.042239
 H        -0.988036        -0.948082        -2.651653
 H        -2.939846        -1.849996        -0.421746
 H        -1.098593        -1.606861         1.106497
 H        -0.251282        -2.111120        -0.357942
 H        -1.013755         1.492743         0.839314
 H         0.143538         2.036852        -0.432031
 H        -2.586675         2.189808        -0.759314
 H        -1.496938         1.671405        -2.207673
