19
Iteration:  4953
 O        -4.104309         0.068606        -1.096540
 C        -2.677407         0.074325        -1.373022
 C        -2.112128        -0.630679        -2.574491
 C        -1.965343        -1.145980        -1.161747
 C        -0.740015        -1.356907        -0.324938
 C         0.050690        -0.113966        -0.062843
 O         1.088061        -0.098514         0.669194
 C        -0.460477         1.187894        -0.726469
 C        -2.033827         1.304131        -0.860077
 H        -4.375848         0.238885        -1.991727
 H        -2.790671        -1.024816        -3.229985
 H        -1.257648        -0.251208        -3.179495
 H        -2.623397        -1.975083        -1.063215
 H        -1.104680        -1.661796         0.616673
 H        -0.158515        -2.195638        -0.779301
 H         0.131337         2.110986        -0.357242
 H        -0.008981         1.046714        -1.703276
 H        -2.426464         1.502446         0.181633
 H        -2.430672         2.134424        -1.416263
