19
Iteration:   741
 O        -3.786546         0.365142        -0.789045
 C        -2.595233        -0.053102        -1.527469
 C        -2.744657        -1.053776        -2.488141
 C        -1.902879        -1.309074        -1.135676
 C        -0.396365        -1.229786        -0.785732
 C        -0.065487         0.111048         0.092545
 O         0.651032         0.012384         1.084080
 C        -0.599146         1.314581        -0.482642
 C        -1.584483         1.054817        -1.666865
 H        -3.474838         0.461656         0.078044
 H        -3.630417        -1.669619        -2.418053
 H        -2.426846        -0.941511        -3.594388
 H        -2.548720        -1.940784        -0.551851
 H        -0.015316        -2.267114        -0.625644
 H         0.198055        -0.918997        -1.663881
 H        -1.109864         1.880729         0.359754
 H         0.293102         1.893807        -0.797733
 H        -2.091782         1.946903        -1.841597
 H        -0.944639         0.781202        -2.485147
