19
Iteration:  4828charge 0 multiplicity 1
 O        -4.122516         0.058576        -1.144726
 C        -2.694485         0.122341        -1.231279
 C        -2.290568        -0.710007        -2.431987
 C        -1.910267        -1.227404        -1.118553
 C        -0.501263        -1.417006        -0.665719
 C         0.067583        -0.094156        -0.072414
 O         0.721890        -0.060900         0.891796
 C        -0.336901         1.181567        -0.794946
 C        -1.857810         1.403608        -1.044269
 H        -4.486027         0.473394        -0.391365
 H        -3.051426        -1.305265        -2.978546
 H        -1.425832        -0.307398        -3.111606
 H        -2.589605        -2.033683        -0.783401
 H        -0.367041        -2.193625         0.158086
 H         0.138431        -1.621712        -1.517619
 H         0.074695         1.999540        -0.196232
 H         0.083238         1.196308        -1.783803
 H        -2.142433         1.808377        -0.005554
 H        -2.120918         2.184590        -1.796884
