19
Iteration:  3646
 O        -3.859123         0.436789        -1.050400
 C        -2.602734        -0.006212        -1.453685
 C        -2.532871        -1.175614        -2.439544
 C        -1.934370        -1.258679        -1.026940
 C        -0.386248        -1.287347        -0.654372
 C         0.013331        -0.008678         0.033305
 O         0.969033        -0.025320         0.740499
 C        -0.906606         1.304851        -0.271081
 C        -1.739871         1.271791        -1.514279
 H        -4.205567         0.198461        -0.114558
 H        -3.443339        -1.802127        -2.660142
 H        -1.968482        -1.070744        -3.324897
 H        -2.413912        -2.024921        -0.405359
 H        -0.064699        -2.140838         0.055010
 H         0.157645        -1.361760        -1.589876
 H        -1.465124         1.384024         0.661207
 H        -0.316617         2.257845        -0.324482
 H        -2.521792         2.066293        -1.780643
 H        -1.008501         1.116844        -2.406981
