19
Iteration:  2273charge 0 multiplicity 1
 O        -3.956173         0.375058        -1.621984
 C        -2.542784         0.008868        -1.456392
 C        -2.029018        -1.128648        -2.294826
 C        -2.122202        -1.178228        -0.694620
 C        -0.785385        -1.262584        -0.132112
 C        -0.019886        -0.045404        -0.037186
 O         1.214751        -0.028868        -0.227497
 C        -0.941062         1.206320         0.172633
 C        -1.791064         1.370499        -1.068995
 H        -4.440557        -0.409340        -2.016149
 H        -2.827602        -1.704061        -2.881785
 H        -1.141927        -1.315697        -2.822131
 H        -2.909268        -1.809171        -0.279526
 H        -0.915982        -1.715781         0.893315
 H        -0.278137        -2.164200        -0.490622
 H        -1.499113         1.067035         1.216086
 H        -0.292418         2.098893         0.338931
 H        -2.422064         2.281095        -1.170307
 H        -1.190731         1.772911        -1.869115
