19
Iteration:  2186
 O        -3.940750         0.021386        -1.325135
 C        -2.554325         0.120654        -1.432862
 C        -2.037502        -0.950245        -2.421296
 C        -2.126975        -1.278990        -0.962671
 C        -0.963167        -1.301294        -0.001235
 C         0.017427        -0.024530        -0.071095
 O         1.206429        -0.113866         0.087158
 C        -0.723925         1.327106        -0.129382
 C        -1.803725         1.429611        -1.236825
 H        -4.661949         0.785648        -1.475764
 H        -2.864383        -1.422595        -2.937789
 H        -1.201330        -0.679010        -3.154076
 H        -2.933875        -1.947457        -0.634687
 H        -1.504076        -1.172713         0.966329
 H        -0.304080        -2.191047        -0.039356
 H        -1.261760         1.428527         0.917459
 H         0.040424         2.152625        -0.252064
 H        -2.585973         2.361238        -1.151095
 H        -1.220721         1.561306        -2.162867
