19
Iteration:  1146
 O        -3.998358         0.424686        -1.457424
 C        -2.615464        -0.035828        -1.347293
 C        -2.219151        -1.036744        -2.439937
 C        -2.154743        -1.348088        -0.903909
 C        -0.684159        -1.308258        -0.240445
 C        -0.025788        -0.042244        -0.001448
 O         1.214212         0.016944         0.195800
 C        -0.839968         1.281120         0.005806
 C        -1.696046         1.234034        -1.287036
 H        -4.401748         0.572671        -0.623237
 H        -3.033154        -1.367681        -3.167338
 H        -1.311470        -1.093188        -3.008608
 H        -2.831862        -2.080375        -0.463977
 H        -0.640939        -1.688382         0.784531
 H        -0.094379        -1.989194        -0.792162
 H        -1.318428         1.501238         0.939491
 H        -0.194468         2.121296        -0.206183
 H        -2.307982         2.131623        -1.304348
 H        -1.058509         1.181692        -2.196528
