19
Iteration:   843
 O        -3.911998         0.285938        -0.849983
 C        -2.623866         0.052552        -1.473048
 C        -2.758143        -1.172247        -2.357487
 C        -1.809801        -1.179837        -1.054209
 C        -0.283053        -1.105235        -0.951891
 C        -0.038423        -0.046485         0.044642
 O         0.498235        -0.086851         1.115497
 C        -0.477543         1.323382        -0.441774
 C        -1.560510         1.134237        -1.712819
 H        -3.755363         0.694083         0.016824
 H        -3.627622        -1.746971        -2.220541
 H        -2.236988        -0.998614        -3.285618
 H        -2.310825        -1.652641        -0.191927
 H         0.133632        -2.072297        -0.623108
 H         0.151856        -1.060904        -1.973503
 H        -1.018136         2.029136         0.206460
 H         0.408720         1.846336        -0.957474
 H        -1.973007         2.174950        -1.929060
 H        -1.121434         0.800125        -2.678706
