19
Iteration:   359
 O        -4.026104         0.271953        -1.456739
 C        -2.599608         0.029676        -1.384710
 C        -1.963480        -1.035391        -2.266340
 C        -2.165713        -1.253435        -0.781408
 C        -0.834568        -1.330119        -0.016971
 C        -0.074242        -0.012800        -0.043698
 O         1.127008        -0.035882        -0.145860
 C        -0.801589         1.332176        -0.032861
 C        -1.696443         1.225132        -1.272557
 H        -4.101739         1.276289        -1.499849
 H        -2.724804        -1.497917        -2.919049
 H        -0.912859        -0.984236        -2.695398
 H        -2.981383        -2.001763        -0.531909
 H        -1.012355        -1.557074         1.084805
 H        -0.272970        -2.206260        -0.342589
 H        -1.411182         1.463832         0.901088
 H        -0.078525         2.122811        -0.149549
 H        -2.160333         2.209010        -1.292023
 H        -0.899886         1.210671        -2.135181
