19
Iteration:  2677
 O        -4.052918         0.362671        -1.249507
 C        -2.653124         0.087820        -1.521561
 C        -2.142417        -0.980802        -2.399559
 C        -2.067877        -1.226175        -0.883757
 C        -0.682861        -1.431187        -0.203196
 C        -0.002936        -0.066689        -0.006214
 O         1.203446         0.020974         0.274846
 C        -0.828173         1.217486        -0.138182
 C        -1.758903         1.307042        -1.384046
 H        -4.471414        -0.535129        -0.995133
 H        -2.955275        -1.411687        -3.154296
 H        -1.270630        -0.660106        -2.947885
 H        -2.781714        -2.013723        -0.539335
 H        -0.711328        -2.016082         0.741716
 H         0.027819        -2.005509        -0.856955
 H        -1.562168         1.228113         0.767872
 H        -0.163281         2.055672        -0.103059
 H        -2.243200         2.248108        -1.383369
 H        -1.204819         1.372142        -2.283001
