19
Iteration:  4913
 O        -4.098543         0.040395        -1.097965
 C        -2.684529         0.080288        -1.200698
 C        -2.082317        -0.595081        -2.549843
 C        -2.019775        -1.231216        -1.181467
 C        -0.697090        -1.407511        -0.479137
 C         0.027309        -0.093770        -0.112667
 O         0.901943        -0.003824         0.774901
 C        -0.350167         1.142923        -0.880482
 C        -1.925259         1.330174        -0.783912
 H        -4.600763         0.300543        -1.948960
 H        -2.950222        -0.979853        -3.192081
 H        -1.154301        -0.067354        -2.974715
 H        -2.669856        -2.109721        -1.038418
 H        -0.934625        -1.853676         0.559681
 H         0.044638        -2.183110        -0.853791
 H         0.160484         2.009437        -0.536893
 H        -0.103288         1.137718        -2.058502
 H        -2.264044         1.542952         0.205247
 H        -2.173576         2.181055        -1.492409
