19
Iteration:  3162charge 0 multiplicity 1
 O        -3.927712         0.099729        -1.756152
 C        -2.589714         0.086508        -1.371329
 C        -1.841269        -0.828100        -2.145890
 C        -2.090260        -1.214669        -0.758277
 C        -0.839214        -1.289401         0.060868
 C        -0.013658        -0.091139        -0.031385
 O         1.142024        -0.228905        -0.391573
 C        -0.782936         1.310465        -0.049813
 C        -2.021078         1.438210        -0.930488
 H        -4.394357         0.619220        -1.160974
 H        -2.341278        -1.368854        -3.102427
 H        -0.866003        -0.585297        -2.469651
 H        -2.789828        -2.039880        -0.588709
 H        -1.140996        -1.507189         1.103468
 H        -0.417915        -2.225130        -0.310285
 H        -1.289922         1.330112         0.947066
 H        -0.008733         2.092254        -0.050604
 H        -2.852337         1.947075        -0.287268
 H        -1.748566         2.129451        -1.826037
