19
Iteration:  2737charge 0 multiplicity 1
 O        -4.012769         0.326539        -1.252701
 C        -2.635940         0.008150        -1.412488
 C        -2.103230        -1.085818        -2.508079
 C        -2.061169        -1.271968        -1.000575
 C        -0.815527        -1.304212        -0.274701
 C         0.037255        -0.001545        -0.056523
 O         1.254200        -0.058836         0.313046
 C        -0.811928         1.286639        -0.126114
 C        -1.805919         1.307922        -1.294066
 H        -4.274730         0.128685        -0.263022
 H        -2.894448        -1.553233        -3.030658
 H        -1.301152        -0.643413        -3.146885
 H        -2.804476        -2.058790        -0.812278
 H        -1.129183        -1.362645         0.831520
 H        -0.155041        -2.156152        -0.525406
 H        -1.514049         1.462750         0.697770
 H        -0.148969         2.204058        -0.085289
 H        -2.560575         2.165865        -0.997166
 H        -1.279377         1.537638        -2.356727
