19
Iteration:  1150charge 0 multiplicity 1
 O        -3.995084         0.427365        -1.484933
 C        -2.574947        -0.027825        -1.361202
 C        -2.229625        -1.042874        -2.433334
 C        -2.195392        -1.346851        -0.870155
 C        -0.711653        -1.330229        -0.258853
 C        -0.009159        -0.017023        -0.013128
 O         1.229130         0.022821         0.188022
 C        -0.825640         1.263118         0.009845
 C        -1.707345         1.239757        -1.262853
 H        -4.296291         0.537802        -0.506771
 H        -2.950653        -1.385911        -3.101849
 H        -1.224483        -0.937010        -2.994799
 H        -2.953651        -2.060876        -0.470842
 H        -0.685240        -1.761327         0.787959
 H         0.117992        -2.061721        -0.676658
 H        -1.365504         1.426048         0.957723
 H        -0.254616         2.223587        -0.203363
 H        -2.486016         2.050216        -1.359262
 H        -1.163489         1.193623        -2.203289
