19
Iteration:  3467
 O        -4.003564         0.420019        -1.247767
 C        -2.621181         0.033253        -1.492565
 C        -2.297154        -1.017278        -2.462215
 C        -2.076983        -1.337559        -0.939565
 C        -0.572832        -1.386897        -0.406770
 C         0.027444        -0.050766         0.066955
 O         1.193273         0.108230         0.325593
 C        -0.924965         1.206238        -0.063270
 C        -1.732200         1.301202        -1.366088
 H        -4.262524        -0.022547        -0.407629
 H        -3.049783        -1.783023        -2.842045
 H        -1.308464        -1.026439        -2.953151
 H        -2.835692        -1.963379        -0.406580
 H        -0.570492        -2.003161         0.531406
 H         0.174005        -1.946922        -0.991787
 H        -1.579700         1.253628         0.764214
 H        -0.168736         1.960816        -0.023008
 H        -2.490091         2.038348        -1.364944
 H        -1.132684         1.357390        -2.379668
