19
Iteration:   317charge 0 multiplicity 1
 O        -4.007721         0.289978        -1.723430
 C        -2.559958         0.067119        -1.428545
 C        -2.102025        -1.097546        -2.243772
 C        -2.117804        -1.198167        -0.679746
 C        -0.815784        -1.313975         0.059470
 C         0.050657        -0.053803        -0.118491
 O         1.271827        -0.034484        -0.174955
 C        -0.804204         1.226557        -0.001071
 C        -1.833953         1.318337        -1.130176
 H        -4.270598         1.019630        -1.262722
 H        -2.939745        -1.511378        -2.795812
 H        -1.291456        -1.385635        -2.939910
 H        -2.946391        -1.866115        -0.298374
 H        -1.106889        -1.272038         1.136206
 H        -0.226635        -2.226530        -0.005821
 H        -1.454715         1.049774         0.921498
 H        -0.132763         2.079735         0.090174
 H        -2.682306         1.973068        -0.823324
 H        -1.529958         1.946586        -1.959516
