19
Iteration:  2209charge 0 multiplicity 1
 O        -4.056193         0.164328        -1.356481
 C        -2.636489         0.013248        -1.460894
 C        -2.008254        -0.962813        -2.419452
 C        -2.070820        -1.217685        -0.873572
 C        -0.850998        -1.246828        -0.021511
 C        -0.015527         0.013326        -0.012711
 O         1.214145        -0.163693         0.000894
 C        -0.770921         1.317071        -0.071819
 C        -1.765611         1.319889        -1.224286
 H        -4.339170         0.710461        -2.052437
 H        -2.601526        -1.602036        -3.179018
 H        -1.017929        -0.669326        -2.812421
 H        -2.831907        -1.897782        -0.409028
 H        -1.289118        -1.370048         0.994088
 H        -0.137594        -2.025663        -0.323152
 H        -1.434521         1.327301         0.892251
 H        -0.124646         2.219694        -0.095590
 H        -2.590139         2.169298        -0.942869
 H        -1.297883         1.562589        -2.167959
