19
Iteration:  2011
 O        -3.857407         0.290469        -1.170460
 C        -2.533239         0.063866        -1.550596
 C        -2.110113        -1.119716        -2.448037
 C        -2.040088        -1.179897        -0.925679
 C        -0.826470        -1.316861        -0.049224
 C        -0.099087        -0.029987        -0.010204
 O         1.100183        -0.008843        -0.062343
 C        -0.993217         1.256915         0.107432
 C        -1.620465         1.282224        -1.351881
 H        -4.307250         0.600193        -1.904597
 H        -3.005935        -1.718511        -2.857515
 H        -1.318524        -0.974390        -3.126611
 H        -2.824085        -1.942865        -0.740468
 H        -1.210892        -1.577726         0.927701
 H        -0.192028        -2.095201        -0.490580
 H        -1.818347         1.157212         0.846648
 H        -0.352963         2.096264         0.481255
 H        -2.206605         2.319474        -1.530284
 H        -0.534268         1.432243        -1.935460
