19
Iteration:  4099charge 0 multiplicity 1
 O        -3.956481         0.305800        -1.146160
 C        -2.633329         0.073657        -1.413174
 C        -2.365887        -1.060374        -2.427495
 C        -2.017855        -1.265465        -0.999464
 C        -0.567908        -1.318833        -0.505439
 C        -0.017570        -0.009420        -0.019377
 O         1.147446         0.104642         0.498482
 C        -0.881998         1.159599        -0.138477
 C        -1.715447         1.258794        -1.480836
 H        -4.002543         0.247995        -0.181469
 H        -3.230290        -1.485734        -3.058929
 H        -1.534148        -1.089715        -3.068403
 H        -2.681409        -1.927124        -0.407967
 H        -0.759666        -2.040014         0.276496
 H         0.049776        -1.860460        -1.267748
 H        -1.560688         1.155974         0.753825
 H        -0.181959         2.075352        -0.037201
 H        -2.232255         2.280439        -1.344361
 H        -1.085606         1.308325        -2.272599
