19
Iteration:  4613charge 0 multiplicity 1
 O        -4.119494         0.084840        -1.255655
 C        -2.645170         0.117188        -1.309235
 C        -2.070327        -0.710903        -2.498820
 C        -2.053715        -1.318224        -1.018167
 C        -0.690137        -1.451558        -0.325597
 C         0.016016        -0.048606        -0.097633
 O         0.996620        -0.074961         0.611429
 C        -0.408140         1.280596        -0.728077
 C        -2.015876         1.449453        -0.896011
 H        -4.336560        -0.706508        -0.807716
 H        -2.663232        -1.135339        -3.155882
 H        -1.112903        -0.337952        -2.838401
 H        -2.843079        -2.044260        -0.853540
 H        -0.681262        -1.869958         0.602406
 H        -0.028350        -1.913280        -0.988915
 H         0.094573         2.264702        -0.362765
 H        -0.063605         1.050029        -1.745822
 H        -2.398099         1.859059        -0.000515
 H        -2.168432         2.137263        -1.831376
