19
Iteration:  4504
 O        -4.054091        -0.035484        -1.519574
 C        -2.646911         0.117065        -1.322897
 C        -1.855065        -0.683503        -2.397084
 C        -2.110759        -1.229229        -0.935726
 C        -0.916222        -1.323442        -0.119132
 C         0.031358        -0.068044        -0.150153
 O         1.213346        -0.199335         0.197648
 C        -0.564928         1.382796        -0.533007
 C        -2.073604         1.345732        -0.741558
 H        -4.482743         0.532227        -0.763585
 H        -2.490437        -1.137696        -3.036323
 H        -0.870842        -0.482037        -2.749146
 H        -2.764426        -2.108200        -0.826556
 H        -1.173196        -1.579376         0.971928
 H        -0.206933        -2.211574        -0.378005
 H        -0.304470         2.281910         0.156017
 H        -0.181055         1.605912        -1.490952
 H        -2.591409         1.373637         0.208807
 H        -2.410949         2.250717        -1.348574
