19
Iteration:  1228charge 0 multiplicity 1
 O        -3.980120         0.327109        -1.577840
 C        -2.645091         0.026123        -1.433568
 C        -1.975876        -0.975366        -2.334142
 C        -2.105645        -1.360116        -0.854986
 C        -0.852060        -1.349825        -0.046621
 C        -0.069703        -0.002735        -0.020780
 O         1.139158        -0.032275        -0.158851
 C        -0.761202         1.282846         0.078955
 C        -1.738019         1.283132        -1.134230
 H        -4.259128         0.482898        -0.731328
 H        -2.600036        -1.368676        -3.189964
 H        -0.977000        -0.713336        -2.525108
 H        -2.922894        -1.923994        -0.460658
 H        -1.175254        -1.430130         1.010834
 H        -0.324199        -2.330879        -0.169074
 H        -1.263798         1.202421         1.033006
 H        -0.140886         2.191227         0.069985
 H        -2.479478         2.127890        -1.071334
 H        -1.193701         1.475051        -2.051127
