19
Iteration:  2086charge 0 multiplicity 1
 O        -4.020727         0.230198        -1.409987
 C        -2.551863         0.077112        -1.534050
 C        -2.140938        -1.094724        -2.379354
 C        -2.153887        -1.188654        -0.787312
 C        -0.749273        -1.376339        -0.172303
 C         0.081389        -0.027381         0.028952
 O         1.270513        -0.087043         0.148552
 C        -0.763754         1.281109        -0.091812
 C        -1.919832         1.401914        -1.215770
 H        -4.536612         0.673896        -2.213427
 H        -2.862114        -1.675503        -2.969973
 H        -1.225777        -1.089384        -2.991704
 H        -2.979856        -1.771355        -0.388622
 H        -0.843499        -1.796268         0.847324
 H        -0.217682        -2.010212        -0.895896
 H        -1.368898         1.392428         0.775449
 H        -0.055758         2.142325        -0.070041
 H        -2.615897         2.281674        -0.932285
 H        -1.468282         1.958952        -1.948282
