19
Iteration:  2600
 O        -4.003578         0.389249        -1.276157
 C        -2.562917         0.053259        -1.497808
 C        -2.174815        -1.046449        -2.370046
 C        -2.128680        -1.255200        -0.837494
 C        -0.717909        -1.401905        -0.266168
 C        -0.021667        -0.020621        -0.026102
 O         1.220686         0.109560         0.128780
 C        -0.987788         1.153679         0.057728
 C        -1.609260         1.272324        -1.321155
 H        -4.491290         0.101578        -1.994492
 H        -3.033688        -1.652630        -2.777731
 H        -1.394892        -1.006404        -3.126845
 H        -3.024793        -1.769096        -0.511496
 H        -0.662876        -1.898866         0.709601
 H        -0.049222        -1.806697        -1.042905
 H        -1.709859         1.015897         0.934696
 H        -0.452598         2.056714         0.287711
 H        -1.987744         2.155713        -1.763228
 H        -0.790586         1.053666        -2.009681
