19
Iteration:  1607charge 0 multiplicity 1
 O        -4.021159         0.300055        -1.493026
 C        -2.616612         0.063427        -1.398583
 C        -1.909084        -0.849834        -2.359212
 C        -2.055648        -1.235646        -0.849981
 C        -0.841748        -1.372191         0.004864
 C        -0.032552        -0.116413        -0.068439
 O         1.154726        -0.078353        -0.046573
 C        -0.786244         1.163169        -0.085462
 C        -1.860167         1.399163        -1.197861
 H        -4.576054        -0.046681        -0.831784
 H        -2.525499        -1.484362        -3.091454
 H        -0.865531        -0.690115        -2.498586
 H        -2.899907        -1.923666        -0.606765
 H        -1.118869        -1.648649         1.002813
 H        -0.186515        -2.188144        -0.382434
 H        -1.379372         1.350182         0.850940
 H         0.050766         1.940075        -0.052030
 H        -2.587714         2.150699        -0.937592
 H        -1.386060         1.654970        -2.172335
