19
Iteration:   944
 O        -3.951324         0.357809        -0.943329
 C        -2.653684         0.048769        -1.495019
 C        -2.584160        -1.096136        -2.460602
 C        -1.934922        -1.272246        -1.053428
 C        -0.451437        -1.192958        -0.710896
 C        -0.010002         0.027192         0.098808
 O         0.859859        -0.057557         0.902988
 C        -0.749860         1.312791        -0.348860
 C        -1.542901         1.096527        -1.673075
 H        -3.984352         0.466732         0.126644
 H        -3.614342        -1.600469        -2.409920
 H        -2.004650        -0.972625        -3.341183
 H        -2.505377        -1.808751        -0.289386
 H        -0.028241        -1.987884        -0.089874
 H         0.065261        -1.116579        -1.707961
 H        -1.267724         1.579589         0.585361
 H         0.076103         2.073409        -0.557665
 H        -1.989247         1.957547        -2.316316
 H        -0.736543         0.798626        -2.398106
