19
Iteration:  4550
 O        -4.136854         0.244232        -1.493348
 C        -2.702240         0.028354        -1.334714
 C        -2.012617        -0.662877        -2.452141
 C        -1.998183        -1.318075        -1.136118
 C        -0.874807        -1.309281        -0.086041
 C         0.083308        -0.008123        -0.065790
 O         1.283215         0.006687         0.432857
 C        -0.513876         1.145440        -0.782019
 C        -2.079109         1.142556        -0.648257
 H        -4.518740        -0.143352        -0.656983
 H        -2.780823        -1.055176        -3.119170
 H        -1.178143        -0.118457        -2.952444
 H        -2.749962        -2.114603        -1.045773
 H        -1.215669        -1.371079         1.030247
 H        -0.222040        -2.300326        -0.229459
 H        -0.041327         2.040440        -0.340519
 H        -0.024792         1.036853        -1.726512
 H        -2.415512         1.147355         0.412097
 H        -2.584815         1.930230        -1.137102
