19
Iteration:  3438charge 0 multiplicity 1
 O        -4.039829         0.308102        -1.210684
 C        -2.633062         0.058264        -1.448120
 C        -2.169598        -0.973579        -2.508187
 C        -2.068810        -1.250587        -0.943906
 C        -0.675455        -1.337279        -0.271301
 C        -0.022836        -0.012653        -0.037120
 O         1.186737         0.002896         0.276140
 C        -0.892843         1.240185        -0.096195
 C        -1.675729         1.278823        -1.355333
 H        -4.206247         0.003240        -0.360051
 H        -2.827231        -1.825705        -2.722937
 H        -1.296729        -0.835037        -3.056405
 H        -2.792400        -2.005505        -0.656856
 H        -0.643879        -1.958268         0.690925
 H        -0.029108        -1.832925        -1.009241
 H        -1.639147         1.219103         0.776859
 H        -0.239940         2.112570         0.084052
 H        -2.430994         2.070696        -1.407749
 H        -1.148536         1.326664        -2.255428
