19
Iteration:  1978
 O        -3.874763         0.363643        -1.260260
 C        -2.544768         0.009225        -1.448755
 C        -2.107703        -1.076097        -2.403183
 C        -2.142235        -1.298336        -0.864408
 C        -0.823163        -1.379428        -0.106872
 C        -0.091585         0.007264         0.012753
 O         1.132127         0.120344        -0.041003
 C        -0.916177         1.161857         0.053761
 C        -1.629305         1.254772        -1.348122
 H        -4.195652         1.123081        -1.924914
 H        -2.926036        -1.465069        -3.132857
 H        -1.170784        -0.936808        -2.867232
 H        -2.922790        -2.054875        -0.607029
 H        -0.997660        -1.810207         0.874232
 H        -0.183462        -2.155981        -0.553000
 H        -1.851916         1.137626         0.613622
 H        -0.260999         2.039631         0.327140
 H        -2.386682         2.146135        -1.301467
 H        -0.722097         1.365204        -2.141700
