19
Iteration:  3716charge 0 multiplicity 1
 O        -3.879702         0.369444        -0.867081
 C        -2.580605        -0.048457        -1.398624
 C        -2.567710        -1.153600        -2.416876
 C        -1.850211        -1.312382        -1.093395
 C        -0.319840        -1.259176        -0.813734
 C        -0.084489         0.004638         0.015237
 O         0.743104        -0.060825         0.929046
 C        -0.743732         1.386847        -0.464585
 C        -1.705873         1.233271        -1.588658
 H        -3.753343         0.845667        -0.021582
 H        -3.483310        -1.699192        -2.503239
 H        -2.044859        -1.085586        -3.427606
 H        -2.438802        -1.930605        -0.430402
 H        -0.009442        -2.125959        -0.292598
 H         0.400294        -1.032207        -1.669017
 H        -1.447809         1.564963         0.353698
 H        -0.061674         2.226264        -0.437886
 H        -2.184278         2.277709        -1.735199
 H        -1.137310         1.083170        -2.457617
