19
Iteration:   558charge 0 multiplicity 1
 O        -3.867546         0.486360        -1.071995
 C        -2.605595         0.055052        -1.522697
 C        -2.425766        -1.113905        -2.504018
 C        -2.038600        -1.329830        -1.026793
 C        -0.654910        -1.281895        -0.398757
 C        -0.039452         0.036899         0.051467
 O         1.094049         0.013484         0.487656
 C        -0.886143         1.279567        -0.142552
 C        -1.585957         1.123146        -1.504936
 H        -4.376909        -0.160927        -0.430074
 H        -3.378049        -1.587972        -2.788780
 H        -1.599126        -1.029685        -3.190686
 H        -2.717255        -1.970267        -0.516767
 H        -0.552254        -1.802252         0.570423
 H         0.049298        -1.733797        -1.108433
 H        -1.618562         1.236971         0.650041
 H        -0.241403         2.155831        -0.012580
 H        -2.064179         2.115608        -1.729156
 H        -0.850372         0.843729        -2.294836
