19
Iteration:  3595
 O        -4.013926         0.251669        -1.138410
 C        -2.590535         0.044860        -1.547693
 C        -2.414017        -1.040695        -2.440677
 C        -2.031145        -1.235844        -0.972634
 C        -0.602571        -1.301605        -0.569548
 C        -0.029429         0.027545         0.128210
 O         1.155394         0.033278         0.600194
 C        -0.792006         1.298690        -0.173367
 C        -1.665971         1.181451        -1.475779
 H        -4.021486         0.102313        -0.111085
 H        -3.360705        -1.655144        -2.720904
 H        -1.836286        -1.077650        -3.346027
 H        -2.695996        -1.646242        -0.170381
 H        -0.224693        -2.229772        -0.088013
 H        -0.052025        -1.376502        -1.570491
 H        -1.521778         1.425131         0.709418
 H        -0.112848         2.220999        -0.228213
 H        -2.376767         2.094530        -1.659945
 H        -1.116138         1.173524        -2.359208
