19
Iteration:  4384
 O        -3.961467         0.097878        -1.669055
 C        -2.622259         0.061903        -1.339232
 C        -1.748410        -0.749232        -2.278022
 C        -2.011494        -1.219966        -0.795952
 C        -0.918481        -1.286520         0.140086
 C        -0.009763        -0.135582        -0.096540
 O         1.097243        -0.095294        -0.446354
 C        -0.742308         1.250901         0.032591
 C        -2.009168         1.352017        -0.930851
 H        -4.530615         0.446388        -1.027562
 H        -2.399301        -1.324996        -2.977095
 H        -0.843634        -0.443607        -2.593652
 H        -2.828813        -1.941812        -0.925999
 H        -1.299276        -1.461461         1.165458
 H        -0.400797        -2.322696         0.002970
 H        -1.141492         1.397536         1.042099
 H         0.083142         1.866283        -0.204690
 H        -2.848232         1.908320        -0.373833
 H        -1.779525         1.824955        -1.870304
