19
Iteration:  3644charge 0 multiplicity 1
 O        -3.865266         0.438541        -1.055603
 C        -2.608497        -0.016355        -1.453073
 C        -2.528818        -1.164201        -2.415007
 C        -1.928873        -1.244341        -1.035740
 C        -0.387913        -1.300235        -0.636872
 C         0.021769        -0.002599         0.009773
 O         0.952117        -0.026881         0.725914
 C        -0.881448         1.315495        -0.253665
 C        -1.754912         1.250056        -1.507860
 H        -4.182526         0.207869        -0.200170
 H        -3.406492        -1.728449        -2.655972
 H        -1.908140        -1.128784        -3.320480
 H        -2.422337        -2.008771        -0.446258
 H        -0.074795        -2.151922         0.014556
 H         0.202974        -1.319866        -1.553168
 H        -1.530647         1.367200         0.664835
 H        -0.348831         2.261241        -0.311520
 H        -2.459672         2.009806        -1.738988
 H        -1.000307         1.139036        -2.436416
