19
Iteration:  3991charge 0 multiplicity 1
 O        -3.884911         0.315016        -0.997469
 C        -2.620643        -0.027627        -1.460940
 C        -2.655664        -1.125408        -2.514048
 C        -1.972620        -1.314001        -1.085684
 C        -0.340651        -1.202742        -0.677741
 C         0.041860         0.003685         0.005401
 O         0.929887        -0.002090         0.848563
 C        -0.782250         1.320682        -0.309173
 C        -1.759776         1.230801        -1.516791
 H        -3.775080         0.854741        -0.260291
 H        -3.410115        -1.858618        -2.552983
 H        -1.878735        -1.017352        -3.208895
 H        -2.452009        -1.890695        -0.296566
 H        -0.114736        -2.126280        -0.102660
 H         0.278677        -1.370634        -1.534554
 H        -1.356414         1.533482         0.627547
 H         0.008903         2.133598        -0.346815
 H        -2.430080         2.211828        -1.641554
 H        -1.085634         1.177682        -2.360437
