19
Iteration:  1130charge 0 multiplicity 1
 O        -4.040707         0.352754        -1.394221
 C        -2.639245         0.093516        -1.468673
 C        -2.272669        -1.052139        -2.360192
 C        -2.025131        -1.298502        -0.951412
 C        -0.744114        -1.357632        -0.275157
 C        -0.052250         0.030620         0.048635
 O         1.191347        -0.011847         0.234438
 C        -0.786045         1.267319        -0.051261
 C        -1.646844         1.228341        -1.307400
 H        -4.209853         0.474414        -0.508107
 H        -3.047865        -1.689804        -2.670008
 H        -1.467664        -0.736365        -3.072983
 H        -2.759401        -2.033321        -0.603099
 H        -0.913123        -1.995526         0.616861
 H         0.176009        -1.863644        -0.726013
 H        -1.515570         1.345290         0.828263
 H        -0.058571         2.132256         0.008309
 H        -2.233129         2.140624        -1.562810
 H        -0.951084         1.118270        -2.163650
