19
Iteration:  3843
 O        -3.665103         0.258929        -0.735681
 C        -2.578886        -0.022191        -1.444162
 C        -2.685138        -1.141468        -2.438274
 C        -1.812227        -1.241567        -1.069010
 C        -0.322588        -1.186718        -0.936634
 C        -0.039126        -0.007545        -0.022344
 O         0.491274        -0.071568         1.061415
 C        -0.753378         1.432489        -0.459182
 C        -1.683122         1.210503        -1.694936
 H        -3.450885         0.727793         0.165976
 H        -3.522502        -1.829805        -2.304204
 H        -2.265967        -0.847396        -3.417056
 H        -2.260922        -2.068528        -0.543924
 H         0.155846        -2.073327        -0.447012
 H         0.117888        -1.012470        -1.939862
 H        -1.157482         1.870639         0.494451
 H         0.193971         1.991499        -0.681288
 H        -2.173913         2.081301        -2.001290
 H        -0.943351         0.917090        -2.512780
