19
Iteration:  1441charge 0 multiplicity 1
 O        -4.019037         0.198038        -1.593477
 C        -2.601214         0.062326        -1.446467
 C        -1.856549        -0.880423        -2.398934
 C        -2.061963        -1.303020        -0.932599
 C        -0.972701        -1.228518         0.121802
 C        -0.030333        -0.016007        -0.074939
 O         1.211317        -0.205858        -0.182486
 C        -0.684691         1.240731        -0.021160
 C        -1.957308         1.348842        -0.993933
 H        -4.352700         0.657166        -0.691035
 H        -2.495821        -1.418580        -3.091604
 H        -0.796917        -0.644148        -2.627461
 H        -2.889127        -1.994259        -0.753840
 H        -1.519193        -1.179913         1.055329
 H        -0.299145        -2.093813         0.271048
 H        -1.026339         1.505915         0.926269
 H         0.157943         1.892888        -0.236105
 H        -2.666417         1.938658        -0.476804
 H        -1.771811         2.041086        -1.826958
