19
Iteration:  3392charge 0 multiplicity 1
 O        -4.044455         0.229734        -1.312248
 C        -2.658132        -0.014852        -1.567392
 C        -2.271396        -0.973982        -2.517734
 C        -1.966537        -1.264689        -0.941235
 C        -0.739991        -1.351599        -0.183518
 C         0.018063         0.009977         0.079914
 O         1.207932         0.017281         0.162068
 C        -0.786689         1.267046        -0.019507
 C        -1.749060         1.328696        -1.287352
 H        -4.061739         0.625875        -0.438891
 H        -3.144572        -1.611488        -2.790371
 H        -1.404996        -0.690200        -3.191761
 H        -2.664586        -2.104577        -0.739207
 H        -1.055509        -1.683440         0.885883
 H        -0.010285        -2.136104        -0.464706
 H        -1.268434         1.200213         1.015942
 H        -0.092262         2.090240        -0.014437
 H        -2.384944         2.130562        -1.130890
 H        -1.246307         1.500077        -2.286843
