19
Iteration:  3189charge 0 multiplicity 1
 O        -3.975802         0.287200        -1.716059
 C        -2.625981         0.016551        -1.392568
 C        -1.803307        -0.937268        -2.224543
 C        -2.083227        -1.244026        -0.860204
 C        -0.844741        -1.345201         0.207436
 C        -0.051001        -0.094563        -0.114882
 O         1.146773        -0.073238        -0.410041
 C        -0.729931         1.270497         0.028938
 C        -1.995825         1.332776        -0.924601
 H        -4.547391         0.253453        -0.993774
 H        -2.265455        -1.483353        -2.914224
 H        -0.858215        -0.511985        -2.661236
 H        -2.840482        -2.073245        -0.898901
 H        -1.313355        -1.111845         1.158982
 H        -0.402829        -2.341799         0.143011
 H        -1.092295         1.305952         1.038417
 H         0.039472         2.043163        -0.020988
 H        -2.781046         1.971011        -0.522993
 H        -1.626072         1.816297        -1.772199
