19
Iteration:  4052charge 0 multiplicity 1
 O        -3.940796         0.389135        -1.089882
 C        -2.585572        -0.005132        -1.453256
 C        -2.439216        -1.101366        -2.440400
 C        -2.013126        -1.316379        -1.000213
 C        -0.537768        -1.185372        -0.663870
 C         0.016506         0.003279         0.097068
 O         1.090868         0.060628         0.570293
 C        -0.961746         1.280104        -0.141741
 C        -1.613292         1.124988        -1.445213
 H        -3.941739         0.205339        -0.183701
 H        -3.377377        -1.535939        -2.617461
 H        -1.892767        -1.327962        -3.473741
 H        -2.801234        -1.872522        -0.461182
 H        -0.355025        -2.087290        -0.088273
 H         0.107446        -1.235932        -1.606023
 H        -1.725373         1.305262         0.622504
 H        -0.321314         2.174598        -0.011732
 H        -2.165783         1.953480        -1.759138
 H        -0.880346         0.912727        -2.307773
