19
Iteration:  4915charge 0 multiplicity 1
 O        -4.117058         0.031735        -1.099656
 C        -2.681291         0.085403        -1.190577
 C        -2.068426        -0.584688        -2.561804
 C        -2.020746        -1.227454        -1.187061
 C        -0.688292        -1.397387        -0.452694
 C         0.012265        -0.113263        -0.121493
 O         0.912509        -0.010027         0.770111
 C        -0.338073         1.149372        -0.879594
 C        -1.928371         1.344272        -0.796286
 H        -4.557422         0.218397        -1.908950
 H        -2.973314        -0.926225        -3.215657
 H        -1.165376        -0.124363        -2.961315
 H        -2.670098        -2.137467        -1.047237
 H        -0.922178        -1.877920         0.563909
 H         0.000780        -2.077736        -0.834543
 H         0.168353         1.993308        -0.572600
 H        -0.119773         1.040476        -1.988774
 H        -2.307564         1.521698         0.243653
 H        -2.197914         2.220942        -1.490948
