19
Iteration:   822charge 0 multiplicity 1
 O        -3.832109         0.364494        -0.860849
 C        -2.509124         0.043353        -1.434468
 C        -2.654304        -1.205095        -2.295178
 C        -1.897266        -1.323916        -1.000672
 C        -0.303335        -1.143784        -0.998843
 C        -0.051546        -0.017074         0.006210
 O         0.465258        -0.117697         1.106799
 C        -0.603265         1.340903        -0.555549
 C        -1.577489         1.237355        -1.641432
 H        -3.583936         0.783769        -0.073909
 H        -3.576163        -1.642172        -2.093268
 H        -2.115889        -1.284342        -3.221764
 H        -2.476812        -1.947116        -0.327962
 H         0.118724        -2.126846        -0.798517
 H         0.073180        -0.767496        -2.008553
 H        -1.139128         1.909580         0.238753
 H         0.323139         1.963531        -0.799308
 H        -2.154005         2.183905        -1.946414
 H        -1.026825         1.072307        -2.612767
