19
Iteration:    48
 O        -4.081880         0.247312        -1.400130
 C        -2.623432         0.044390        -1.452552
 C        -1.919231        -0.975569        -2.432603
 C        -2.045023        -1.229487        -0.913974
 C        -0.931423        -1.199219         0.125760
 C        -0.009018        -0.017101        -0.020126
 O         1.223939        -0.196474        -0.046210
 C        -0.724349         1.312841        -0.131392
 C        -1.826290         1.325889        -1.262931
 H        -4.444449        -0.246590        -0.560379
 H        -2.554489        -1.707847        -3.003694
 H        -0.921767        -0.735706        -2.993236
 H        -2.794995        -2.051824        -0.736683
 H        -1.412789        -1.047915         1.094332
 H        -0.292836        -2.118567         0.217313
 H        -1.312747         1.376659         0.794185
 H        -0.099555         2.200643        -0.222677
 H        -2.601769         1.996811        -0.898714
 H        -1.451657         1.657630        -2.303448
