19
Iteration:  1204charge 0 multiplicity 1
 O        -3.985560         0.176234        -1.562724
 C        -2.625452         0.185536        -1.485484
 C        -2.114548        -0.978802        -2.344950
 C        -2.072684        -1.208114        -0.836953
 C        -0.818232        -1.328776        -0.033871
 C         0.012476        -0.075317        -0.040537
 O         1.249425        -0.088394        -0.050512
 C        -0.876354         1.204350         0.102166
 C        -1.735382         1.362512        -1.229146
 H        -4.294195         0.730315        -0.773901
 H        -2.865295        -1.502840        -2.876299
 H        -1.095260        -0.816908        -2.766953
 H        -2.924884        -1.796760        -0.435317
 H        -0.961568        -1.670471         0.979197
 H        -0.210505        -2.161285        -0.459929
 H        -1.546426         1.077764         0.899545
 H        -0.503366         2.245175         0.102329
 H        -2.390499         2.258675        -1.077829
 H        -1.224319         1.568135        -2.164783
