19
Iteration:  1713charge 0 multiplicity 1
 O        -3.882242         0.435118        -1.348195
 C        -2.535732         0.026957        -1.458645
 C        -2.082676        -1.038082        -2.344212
 C        -2.175238        -1.249720        -0.835986
 C        -0.802332        -1.374387        -0.164800
 C        -0.071706        -0.009652        -0.016525
 O         1.187718         0.059064        -0.066350
 C        -0.955718         1.182833         0.135872
 C        -1.684909         1.250753        -1.263827
 H        -4.325055        -0.055798        -2.073047
 H        -2.889413        -1.663838        -3.012588
 H        -1.124197        -1.206124        -2.890463
 H        -3.000816        -1.930531        -0.599766
 H        -0.893696        -1.747078         0.939046
 H        -0.042148        -2.042149        -0.629121
 H        -1.752773         1.033097         0.991052
 H        -0.523488         2.150920         0.074600
 H        -2.313753         2.127941        -1.511737
 H        -0.880438         1.256298        -2.070291
