19
Iteration:  3543
 O        -3.947262         0.329293        -1.150637
 C        -2.627625         0.019699        -1.423404
 C        -2.335243        -1.002233        -2.443606
 C        -2.060041        -1.299497        -0.963971
 C        -0.573228        -1.356322        -0.490862
 C         0.007058        -0.004461         0.000129
 O         1.106509         0.130778         0.472548
 C        -0.900045         1.150380        -0.131296
 C        -1.689442         1.215583        -1.431953
 H        -4.005836         1.028392        -0.491305
 H        -3.200331        -1.496467        -3.047814
 H        -1.426314        -0.896269        -3.029321
 H        -2.612141        -2.092996        -0.425644
 H        -0.432023        -2.031520         0.318266
 H         0.064325        -1.829514        -1.248164
 H        -1.691697         1.223922         0.687050
 H        -0.207137         1.976119        -0.140422
 H        -2.298177         2.077160        -1.442685
 H        -1.161346         1.286507        -2.488856
