19
Iteration:  3482
 O        -3.958253         0.345647        -1.273398
 C        -2.595923         0.036245        -1.416785
 C        -2.342099        -1.140137        -2.453396
 C        -2.053355        -1.292661        -0.969125
 C        -0.675048        -1.364615        -0.390587
 C         0.029839         0.060609        -0.106619
 O         1.150309         0.097151         0.383617
 C        -0.839320         1.240982        -0.036397
 C        -1.656007         1.249419        -1.323098
 H        -4.307432        -0.012151        -0.510722
 H        -3.344079        -1.371807        -2.780219
 H        -1.658149        -0.925922        -3.246381
 H        -2.719789        -2.036459        -0.574669
 H        -0.586684        -1.980319         0.570348
 H        -0.127695        -1.782250        -1.244970
 H        -1.578588         1.049021         0.806826
 H        -0.460106         2.240306         0.224214
 H        -2.310551         2.185163        -1.361785
 H        -0.954297         1.359205        -2.082892
