19
Iteration:  3737
 O        -3.833487         0.315576        -0.871952
 C        -2.618750         0.006000        -1.513149
 C        -2.584081        -1.154343        -2.344809
 C        -1.915667        -1.267695        -1.027572
 C        -0.345763        -1.177095        -0.942125
 C         0.027485         0.008939        -0.016818
 O         0.666624        -0.004089         1.037299
 C        -0.701803         1.278017        -0.415287
 C        -1.726254         1.168714        -1.617821
 H        -3.535654         0.785069         0.020073
 H        -3.441277        -1.711801        -2.618165
 H        -1.942558        -1.089423        -3.294415
 H        -2.490363        -1.958448        -0.445401
 H         0.099335        -2.008613        -0.427221
 H         0.164768        -1.129999        -1.944655
 H        -0.958318         1.700510         0.536166
 H         0.226797         1.756922        -0.787061
 H        -2.475137         2.124847        -1.446123
 H        -1.180276         1.473829        -2.462139
