19
Iteration:  2783charge 0 multiplicity 1
 O        -4.038216         0.169836        -1.437125
 C        -2.577558         0.091785        -1.429434
 C        -2.204344        -0.956597        -2.336722
 C        -2.104498        -1.255431        -0.908814
 C        -0.768809        -1.357464        -0.268675
 C         0.015284        -0.051158        -0.019206
 O         1.224088         0.019219         0.130572
 C        -0.818247         1.266159         0.045556
 C        -1.709453         1.319025        -1.311863
 H        -4.397667         0.827892        -0.720878
 H        -3.164649        -1.374112        -2.863199
 H        -1.283578        -0.948577        -2.820618
 H        -2.799404        -1.958294        -0.461733
 H        -0.924609        -1.760293         0.761476
 H        -0.064806        -2.090395        -0.762247
 H        -1.447643         1.168355         0.942500
 H        -0.135563         2.094209         0.200319
 H        -2.418694         2.200724        -1.240933
 H        -0.887032         1.417692        -2.182364
