19
Iteration:   876charge 0 multiplicity 1
 O        -3.826412         0.396938        -0.796165
 C        -2.513343        -0.004361        -1.384030
 C        -2.504862        -1.114919        -2.358332
 C        -1.890779        -1.369583        -1.061225
 C        -0.436805        -1.230853        -0.841958
 C        -0.095099         0.003795        -0.050513
 O         0.528222        -0.076942         1.029740
 C        -0.573691         1.353834        -0.527901
 C        -1.652897         1.200892        -1.710963
 H        -3.631379         0.508380         0.108837
 H        -3.332797        -1.672707        -2.617482
 H        -1.906437        -0.839943        -3.246866
 H        -2.507965        -1.969859        -0.420805
 H        -0.196862        -2.075358        -0.230575
 H         0.045580        -1.074252        -1.841787
 H        -1.138433         1.961411         0.206615
 H         0.382570         2.018504        -0.693495
 H        -2.288675         2.139269        -1.805719
 H        -1.225403         1.095182        -2.727394
