19
Iteration:  2041charge 0 multiplicity 1
 O        -3.977135         0.274669        -1.310841
 C        -2.605220         0.027734        -1.458886
 C        -2.157711        -0.954631        -2.408758
 C        -2.154970        -1.295082        -0.951400
 C        -0.812381        -1.405376        -0.014115
 C         0.018658        -0.064370         0.016375
 O         1.264212         0.092384         0.009685
 C        -0.921621         1.267960         0.031783
 C        -1.668827         1.220229        -1.319449
 H        -4.201075         0.955794        -2.073194
 H        -2.946805        -1.399071        -3.103091
 H        -1.249163        -0.791266        -2.908614
 H        -2.917326        -2.022719        -0.601771
 H        -1.192845        -1.573507         1.016593
 H        -0.159191        -2.192726        -0.409790
 H        -1.549663         1.246680         0.912185
 H        -0.234146         2.106667         0.090828
 H        -2.137764         2.237623        -1.580862
 H        -0.940064         1.280754        -2.061663
