19
Iteration:  3565
 O        -3.974240         0.315810        -1.158939
 C        -2.606824         0.004794        -1.452752
 C        -2.413409        -1.098884        -2.457450
 C        -1.978106        -1.337803        -1.039753
 C        -0.570053        -1.376580        -0.510133
 C         0.065268         0.057259        -0.073131
 O         1.070942         0.033304         0.545302
 C        -0.821295         1.342523        -0.080353
 C        -1.753464         1.292013        -1.400819
 H        -4.031019         0.906934        -0.364740
 H        -3.312292        -1.756290        -2.709723
 H        -1.661300        -1.034966        -3.250541
 H        -2.686714        -1.853920        -0.363970
 H        -0.431739        -1.924859         0.386653
 H         0.089535        -1.890704        -1.209652
 H        -1.547085         1.166692         0.750309
 H        -0.328618         2.293186         0.005608
 H        -2.305457         2.094290        -1.785252
 H        -0.962917         1.097607        -2.248376
