19
Iteration:  2746
 O        -4.041454         0.288033        -1.286387
 C        -2.666295         0.067991        -1.448569
 C        -2.138859        -0.996321        -2.420338
 C        -2.035951        -1.220584        -0.993301
 C        -0.713266        -1.333555        -0.209163
 C         0.024511        -0.075078         0.013606
 O         1.198376        -0.021225         0.254663
 C        -0.823743         1.237098        -0.150625
 C        -1.769026         1.294525        -1.335714
 H        -4.128150         0.221044        -0.246217
 H        -2.889621        -1.339646        -3.008600
 H        -1.209302        -0.689640        -3.029599
 H        -2.695353        -2.109645        -0.779565
 H        -1.145355        -1.651806         0.803011
 H        -0.170623        -2.194860        -0.611100
 H        -1.384051         1.323044         0.846014
 H        -0.051716         2.072274        -0.140517
 H        -2.647203         2.033842        -1.286789
 H        -1.278935         1.658376        -2.303838
