19
Iteration:  2655
 O        -3.937035         0.468500        -1.280989
 C        -2.582967        -0.008459        -1.417933
 C        -2.203716        -1.087128        -2.414322
 C        -2.081736        -1.260707        -0.932695
 C        -0.734350        -1.285303        -0.336434
 C         0.032828         0.001615        -0.101156
 O         1.187437         0.004586         0.278184
 C        -0.884647         1.207440        -0.059747
 C        -1.784623         1.259532        -1.300036
 H        -4.547708        -0.265685        -1.264732
 H        -2.836544        -1.907494        -2.955845
 H        -1.196987        -1.049249        -2.757764
 H        -2.763629        -2.006741        -0.497003
 H        -0.825587        -1.654007         0.707059
 H         0.044555        -1.948854        -0.746803
 H        -1.591793         1.003511         0.829008
 H        -0.297528         2.090682         0.103822
 H        -2.477605         2.069883        -1.263213
 H        -1.202118         1.469316        -2.153680
