19
Iteration:  3992
 O        -3.878796         0.310936        -1.005719
 C        -2.618795        -0.019155        -1.461180
 C        -2.659696        -1.123531        -2.510793
 C        -1.970757        -1.308293        -1.080099
 C        -0.339085        -1.203071        -0.667345
 C         0.051055         0.003628         0.002965
 O         0.923427        -0.004255         0.838325
 C        -0.788056         1.328013        -0.301341
 C        -1.764209         1.226804        -1.515741
 H        -3.733644         0.878949        -0.238838
 H        -3.414226        -1.912962        -2.559940
 H        -1.904837        -1.023324        -3.189138
 H        -2.479153        -1.899759        -0.331611
 H        -0.098956        -2.161485        -0.117423
 H         0.271702        -1.376888        -1.524815
 H        -1.345368         1.509071         0.640392
 H        -0.024827         2.108580        -0.326497
 H        -2.419453         2.184385        -1.647550
 H        -1.063368         1.213843        -2.391494
