19
Iteration:  1767charge 0 multiplicity 1
 O        -3.999550         0.311095        -1.331165
 C        -2.617324         0.005528        -1.474395
 C        -2.172859        -1.027626        -2.372869
 C        -2.085121        -1.232529        -0.898540
 C        -0.770764        -1.309860        -0.162963
 C         0.021710        -0.032054         0.024315
 O         1.256322        -0.016930         0.109234
 C        -0.880467         1.197825        -0.013414
 C        -1.742079         1.261312        -1.309838
 H        -4.135968         1.033877        -1.942969
 H        -2.879219        -1.452142        -3.207938
 H        -1.172276        -0.915160        -2.913485
 H        -2.889501        -1.714774        -0.325927
 H        -1.011448        -1.634653         0.889603
 H        -0.065081        -2.034167        -0.591046
 H        -1.619922         1.244729         0.926670
 H        -0.433093         2.184500        -0.035531
 H        -2.455049         2.131790        -1.331583
 H        -1.042849         1.373156        -2.214356
