19
Iteration:  1764charge 0 multiplicity 1
 O        -3.986335         0.303890        -1.333864
 C        -2.634266         0.012507        -1.481382
 C        -2.186646        -1.034881        -2.402127
 C        -2.076027        -1.218040        -0.899323
 C        -0.772910        -1.310144        -0.144011
 C         0.056317        -0.041564         0.057958
 O         1.252797        -0.012816         0.091315
 C        -0.914634         1.200572        -0.008580
 C        -1.722350         1.268482        -1.280884
 H        -4.189063         1.029341        -2.090549
 H        -2.862298        -1.377037        -3.132073
 H        -1.325902        -1.064883        -3.014321
 H        -2.845538        -1.704613        -0.310421
 H        -0.958525        -1.635350         0.853893
 H        -0.095451        -2.053508        -0.560002
 H        -1.600042         1.222407         0.859857
 H        -0.389694         2.167434        -0.064133
 H        -2.445312         2.140363        -1.391402
 H        -1.103360         1.371261        -2.158226
