19
Iteration:   652
 O        -3.963998         0.397877        -1.191334
 C        -2.684320        -0.031876        -1.441791
 C        -2.670589        -1.213219        -2.419873
 C        -1.988299        -1.209249        -0.967071
 C        -0.408159        -1.155217        -0.681405
 C         0.061169         0.035480         0.091046
 O         0.965566        -0.100314         0.857599
 C        -0.655788         1.292898        -0.286481
 C        -1.674595         1.202206        -1.520364
 H        -3.969137         0.596594        -0.330477
 H        -3.574117        -1.915556        -2.511907
 H        -1.912638        -1.086330        -3.196783
 H        -2.590542        -1.891197        -0.388868
 H         0.108802        -2.042913        -0.300001
 H        -0.004673        -1.028498        -1.720334
 H        -1.205862         1.847592         0.536851
 H         0.073484         2.001461        -0.686918
 H        -2.150308         2.111409        -1.716085
 H        -1.125322         0.874430        -2.397325
