19
Iteration:  3029charge 0 multiplicity 1
 O        -4.089320         0.129322        -1.618154
 C        -2.698970         0.036759        -1.366366
 C        -1.903942        -0.916620        -2.380808
 C        -2.043916        -1.176169        -0.873136
 C        -0.836138        -1.329566         0.055228
 C         0.050118        -0.001166        -0.054922
 O         1.286987        -0.242659        -0.076745
 C        -0.698716         1.317676        -0.154731
 C        -2.020114         1.445712        -0.980583
 H        -4.507792         0.495433        -0.858628
 H        -2.628646        -1.457449        -2.995642
 H        -0.948385        -0.538396        -2.937527
 H        -2.716296        -2.016208        -0.861065
 H        -1.157337        -1.449911         1.090622
 H        -0.252049        -2.189255        -0.279074
 H        -1.077721         1.249517         0.859064
 H        -0.110232         2.284000        -0.105367
 H        -2.663409         2.249066        -0.536166
 H        -1.839038         1.933554        -2.005853
