19
Iteration:  1108charge 0 multiplicity 1
 O        -3.976600         0.264062        -1.259398
 C        -2.610503         0.097913        -1.518277
 C        -2.342110        -1.036586        -2.548257
 C        -2.093516        -1.187972        -0.895565
 C        -0.726663        -1.357470        -0.243129
 C         0.026904         0.008097         0.020074
 O         1.259193        -0.015772         0.360451
 C        -0.922856         1.207724        -0.096756
 C        -1.638997         1.281563        -1.451643
 H        -4.129275         0.571418        -0.258101
 H        -3.233138        -1.410806        -2.907401
 H        -1.307962        -1.013755        -2.989201
 H        -2.866740        -1.773148        -0.359904
 H        -0.800098        -1.888889         0.735315
 H        -0.043807        -2.114802        -0.821058
 H        -1.792703         1.265896         0.652999
 H        -0.109005         1.955575         0.190574
 H        -2.239872         2.222155        -1.611312
 H        -0.866726         1.336285        -2.239247
