19
Iteration:  2672charge 0 multiplicity 1
 O        -4.045524         0.389424        -1.240532
 C        -2.677250         0.071836        -1.541598
 C        -2.100610        -0.989731        -2.403629
 C        -2.097134        -1.283779        -0.848558
 C        -0.642285        -1.393133        -0.239013
 C         0.017083        -0.029619        -0.014042
 O         1.172865         0.007370         0.271042
 C        -0.867100         1.185114        -0.123778
 C        -1.716532         1.276667        -1.371167
 H        -4.468654        -0.411941        -1.044901
 H        -2.834520        -1.346522        -3.046460
 H        -1.309468        -0.671824        -3.152240
 H        -2.901989        -1.885747        -0.433749
 H        -0.675907        -1.790531         0.783534
 H        -0.139007        -2.082929        -0.929598
 H        -1.470687         1.251203         0.743570
 H        -0.226940         2.113007        -0.080077
 H        -2.349530         2.220570        -1.230656
 H        -1.216431         1.493581        -2.382146
