19
Iteration:  1845
 O        -4.115319         0.212251        -1.245223
 C        -2.740080         0.072627        -1.433334
 C        -2.192789        -1.030276        -2.502651
 C        -2.037055        -1.248544        -1.085216
 C        -0.778014        -1.274981        -0.147780
 C         0.084105        -0.022174        -0.077122
 O         1.226848        -0.112065         0.376001
 C        -0.613991         1.290003        -0.179190
 C        -1.760221         1.361524        -1.242709
 H        -4.654649         0.094736        -2.161154
 H        -3.013123        -1.588776        -2.850905
 H        -1.318372        -0.640688        -3.061029
 H        -2.819299        -1.874826        -0.662113
 H        -1.154651        -1.184122         0.882028
 H        -0.143174        -2.155532        -0.309059
 H        -1.078649         1.571686         0.837145
 H         0.024266         2.161824        -0.237700
 H        -2.487607         2.126683        -1.056180
 H        -1.242405         1.382254        -2.241331
