19
Iteration:  3546charge 0 multiplicity 1
 O        -3.961368         0.331189        -1.145875
 C        -2.610009         0.014199        -1.439458
 C        -2.336551        -1.012226        -2.430274
 C        -2.074286        -1.308456        -0.944041
 C        -0.563378        -1.367108        -0.517665
 C         0.031115         0.000438        -0.018808
 O         1.101560         0.124504         0.487795
 C        -0.947516         1.190103        -0.148862
 C        -1.663856         1.199362        -1.427015
 H        -3.948958         1.024136        -0.508295
 H        -3.149154        -1.369718        -2.989365
 H        -1.487022        -0.846850        -3.113033
 H        -2.637778        -2.100070        -0.501932
 H        -0.469669        -2.049593         0.394179
 H         0.108637        -1.879517        -1.220315
 H        -1.574763         1.225350         0.731204
 H        -0.222152         1.978600        -0.137437
 H        -2.301714         2.078570        -1.356729
 H        -1.153462         1.335389        -2.434328
