19
Iteration:  4823charge 0 multiplicity 1
 O        -4.100305         0.070681        -1.139556
 C        -2.715065         0.120550        -1.242973
 C        -2.262141        -0.709098        -2.437416
 C        -1.923679        -1.255525        -1.099217
 C        -0.491115        -1.387418        -0.669641
 C         0.028480        -0.099379        -0.127199
 O         0.735022        -0.061514         0.926197
 C        -0.328647         1.196227        -0.783890
 C        -1.882688         1.423362        -1.058265
 H        -4.391185         0.330273        -0.162036
 H        -3.076289        -1.226452        -2.906691
 H        -1.491797        -0.298338        -3.061138
 H        -2.580655        -2.087472        -0.908910
 H        -0.427423        -2.104297         0.094356
 H         0.200753        -1.767306        -1.486260
 H         0.218574         1.819830        -0.024800
 H         0.015406         1.041011        -1.879216
 H        -2.201336         1.788072        -0.104176
 H        -2.104520         2.168018        -1.887973
