19
Iteration:  3498
 O        -3.947267         0.272776        -1.277026
 C        -2.558559         0.014416        -1.453661
 C        -2.434476        -1.059827        -2.426091
 C        -2.082804        -1.286367        -0.972328
 C        -0.622547        -1.195033        -0.523397
 C         0.003274         0.042027        -0.023211
 O         1.190968         0.015142         0.397398
 C        -0.906024         1.277852        -0.002611
 C        -1.674807         1.220695        -1.345279
 H        -4.149649         0.067120        -0.341297
 H        -3.301765        -1.603945        -2.892620
 H        -1.557872        -1.147016        -3.109797
 H        -2.828539        -1.754552        -0.280703
 H        -0.661294        -1.639198         0.453654
 H         0.183488        -1.834538        -0.892472
 H        -1.535117         1.056840         0.914936
 H        -0.187537         2.084429         0.227029
 H        -2.189801         2.164020        -1.606741
 H        -0.922789         1.121849        -2.230772
