19
Iteration:   947
 O        -3.926951         0.360515        -0.959905
 C        -2.665687         0.054924        -1.490207
 C        -2.564303        -1.087794        -2.416078
 C        -1.946711        -1.271473        -1.058294
 C        -0.459723        -1.202789        -0.750666
 C        -0.027141         0.008079         0.094497
 O         0.876610        -0.039778         0.897507
 C        -0.748453         1.325284        -0.321531
 C        -1.558082         1.070395        -1.657442
 H        -4.009669         0.521984        -0.001932
 H        -3.572456        -1.631504        -2.494967
 H        -1.988272        -0.999104        -3.397927
 H        -2.504278        -1.832024        -0.266736
 H        -0.068198        -1.989517        -0.057995
 H        -0.022269        -1.164556        -1.749757
 H        -1.261502         1.671588         0.587666
 H        -0.049802         2.103387        -0.608049
 H        -1.922095         1.965854        -2.227444
 H        -0.729355         0.743779        -2.347726
