19
Iteration:  2275charge 0 multiplicity 1
 O        -3.958728         0.387849        -1.618680
 C        -2.553599         0.006735        -1.476263
 C        -2.022193        -1.153626        -2.293665
 C        -2.111381        -1.173092        -0.697679
 C        -0.769548        -1.270026        -0.142067
 C        -0.005991        -0.050501        -0.012145
 O         1.194936        -0.037542        -0.239646
 C        -0.942781         1.229365         0.174289
 C        -1.791296         1.367591        -1.059089
 H        -4.453925        -0.488240        -2.002505
 H        -2.832241        -1.673552        -2.904540
 H        -1.099279        -1.261085        -2.792939
 H        -2.971506        -1.746374        -0.288378
 H        -0.908621        -1.632067         0.919543
 H        -0.272562        -2.149445        -0.532291
 H        -1.501144         1.053723         1.245409
 H        -0.325577         2.114095         0.343173
 H        -2.481065         2.320977        -1.135858
 H        -1.129218         1.669647        -1.850621
