19
Iteration:  1413charge 0 multiplicity 1
 O        -3.982365         0.219494        -1.674616
 C        -2.597067         0.062825        -1.355739
 C        -1.790218        -0.801272        -2.287094
 C        -2.063944        -1.240448        -0.847717
 C        -0.970419        -1.405107         0.171024
 C        -0.003815        -0.076387        -0.127369
 O         1.198900        -0.230542        -0.257973
 C        -0.807681         1.311459        -0.091415
 C        -1.970770         1.393748        -0.999841
 H        -4.588186         0.412098        -0.816342
 H        -2.253662        -1.358342        -3.046035
 H        -0.738862        -0.444636        -2.453754
 H        -2.875781        -1.940188        -0.719243
 H        -1.371665        -1.488390         1.254116
 H        -0.254584        -2.277443         0.086181
 H        -1.131374         1.627642         0.982338
 H         0.056338         2.017085        -0.261041
 H        -2.763431         2.090478        -0.510417
 H        -1.656764         1.869012        -1.960290
