19
Iteration:  4808
 O        -4.038545         0.147782        -1.036425
 C        -2.622306         0.075102        -1.324545
 C        -2.251166        -0.693803        -2.518681
 C        -1.969720        -1.297471        -1.109140
 C        -0.516539        -1.395658        -0.644257
 C         0.039336        -0.070372        -0.055474
 O         0.696294        -0.080327         0.900957
 C        -0.370625         1.182490        -0.823297
 C        -1.929792         1.413769        -1.012458
 H        -4.118417        -0.254010        -0.181931
 H        -3.072128        -1.082268        -3.132244
 H        -1.393499        -0.361428        -3.085686
 H        -2.590194        -2.170680        -0.764932
 H        -0.390147        -2.065571         0.253342
 H         0.171180        -1.792832        -1.515605
 H         0.041848         2.177719        -0.393560
 H         0.161623         1.187977        -1.753843
 H        -2.447143         2.030834        -0.267268
 H        -2.019581         1.958036        -1.896298
