19
Iteration:  2561
 O        -3.901354         0.322030        -1.238409
 C        -2.518717         0.026682        -1.515280
 C        -2.213421        -1.070352        -2.489361
 C        -2.075838        -1.269206        -0.939596
 C        -0.788786        -1.330701        -0.112119
 C        -0.058907        -0.014328         0.015076
 O         1.187965         0.076285         0.104404
 C        -0.944591         1.221299         0.009895
 C        -1.720375         1.232363        -1.314439
 H        -4.063715         1.246983        -1.664875
 H        -3.106060        -1.707740        -2.746546
 H        -1.350598        -1.140395        -3.141563
 H        -2.830942        -1.972862        -0.514754
 H        -0.775132        -1.957950         0.802368
 H        -0.140717        -1.992815        -0.701825
 H        -1.574395         1.144093         0.877030
 H        -0.195519         2.019147         0.005417
 H        -2.336981         2.207740        -1.310291
 H        -0.925403         1.514189        -2.101374
