19
Iteration:  2993charge 0 multiplicity 1
 O        -3.981057         0.246004        -1.631854
 C        -2.641457         0.020781        -1.317272
 C        -1.977774        -0.983861        -2.354995
 C        -2.150106        -1.263008        -0.886405
 C        -0.836239        -1.350668        -0.100285
 C        -0.031960        -0.066300        -0.109730
 O         1.233171         0.048724        -0.041555
 C        -0.672879         1.207299        -0.101469
 C        -1.954054         1.337103        -0.943103
 H        -4.323627         0.695065        -0.894574
 H        -2.772600        -1.362201        -3.128933
 H        -1.067497        -0.794857        -2.780598
 H        -2.915814        -2.047502        -0.582592
 H        -1.114347        -1.335034         1.001805
 H        -0.224020        -2.291196        -0.140408
 H        -0.969406         1.332911         1.016603
 H         0.150532         1.839581        -0.360609
 H        -2.627989         1.968902        -0.400886
 H        -1.556377         1.740828        -2.010143
