19
Iteration:  3053
 O        -4.000424         0.019644        -1.593785
 C        -2.665188         0.120088        -1.428805
 C        -1.928918        -0.762172        -2.302426
 C        -2.152980        -1.223231        -0.879941
 C        -0.915102        -1.309247         0.052618
 C         0.002805        -0.045394        -0.142745
 O         1.261281        -0.138896        -0.102631
 C        -0.689310         1.198860        -0.071948
 C        -1.936199         1.398358        -1.037101
 H        -4.351061        -0.100938        -0.714045
 H        -2.549209        -1.172688        -3.047862
 H        -0.770801        -0.588718        -2.588320
 H        -3.080964        -1.738575        -0.801710
 H        -1.171470        -1.044977         1.064683
 H        -0.357972        -2.224973         0.048136
 H        -0.819447         1.476862         0.921348
 H         0.135901         1.898048        -0.422103
 H        -2.662683         2.163249        -0.538260
 H        -1.688873         1.979418        -1.871691
