19
Iteration:  1617
 O        -4.003636         0.319313        -1.509156
 C        -2.661081         0.045156        -1.355330
 C        -1.920680        -0.981934        -2.400112
 C        -2.077111        -1.189060        -0.876216
 C        -0.800977        -1.402739        -0.008536
 C        -0.075237        -0.086275        -0.103213
 O         1.175064        -0.100124        -0.053881
 C        -0.843125         1.280385         0.012646
 C        -1.792413         1.437179        -1.155686
 H        -4.345522        -0.222869        -0.892657
 H        -2.447630        -1.777984        -3.090086
 H        -1.021658        -0.605945        -2.852620
 H        -2.819244        -1.990327        -0.618006
 H        -1.088887        -1.581374         1.019821
 H        -0.411785        -2.326302        -0.436194
 H        -1.300365         1.241558         1.008805
 H         0.000372         1.965937        -0.131878
 H        -2.487194         2.214113        -1.018441
 H        -1.336727         1.629243        -2.148926
