19
Iteration:  2022
 O        -3.962991         0.274337        -1.195447
 C        -2.553705         0.068568        -1.554017
 C        -2.142518        -1.076278        -2.480578
 C        -2.038547        -1.192838        -0.957048
 C        -0.829379        -1.319373        -0.045039
 C        -0.084446        -0.049195         0.131083
 O         1.119783         0.051220        -0.070928
 C        -0.915502         1.186598         0.063392
 C        -1.534201         1.284384        -1.322703
 H        -4.419460         0.710110        -1.999305
 H        -2.956383        -1.711436        -2.947415
 H        -1.277648        -0.920871        -3.091712
 H        -2.824157        -1.822748        -0.499224
 H        -1.171484        -1.594647         0.951979
 H        -0.075013        -2.077121        -0.304961
 H        -1.685450         1.026350         0.831338
 H        -0.296545         2.092371         0.261781
 H        -2.228199         2.268678        -1.411485
 H        -0.953846         1.280217        -2.342024
