19
Iteration:  2123charge 0 multiplicity 1
 O        -4.099958         0.202911        -1.388117
 C        -2.701529         0.035583        -1.399940
 C        -2.051559        -0.946057        -2.368801
 C        -2.133142        -1.292652        -0.861452
 C        -0.746295        -1.273241        -0.179316
 C         0.046415        -0.030960        -0.121669
 O         1.180352        -0.097792         0.243476
 C        -0.678390         1.279280        -0.203010
 C        -1.823399         1.381810        -1.183050
 H        -4.206891         0.240391        -2.438089
 H        -2.855727        -1.410146        -2.922888
 H        -1.103175        -0.642716        -2.784505
 H        -2.927891        -1.988157        -0.524915
 H        -0.852833        -1.437299         0.891304
 H        -0.035378        -2.077257        -0.384977
 H        -1.014095         1.340424         0.798964
 H         0.091803         2.022855        -0.321666
 H        -2.430429         2.148426        -0.744264
 H        -1.464792         1.551855        -2.237166
