19
Iteration:  1326charge 0 multiplicity 1
 O        -3.899403         0.326875        -1.786771
 C        -2.582068         0.031189        -1.428063
 C        -1.867716        -0.942900        -2.299800
 C        -2.091404        -1.331876        -0.705057
 C        -0.896018        -1.356701         0.196863
 C        -0.050452        -0.084704        -0.015869
 O         1.135402        -0.110780        -0.419026
 C        -0.775731         1.257686         0.055663
 C        -1.959973         1.380813        -0.939225
 H        -4.209153         0.744174        -0.978207
 H        -2.579992        -1.229208        -3.051459
 H        -0.833976        -0.798104        -2.616467
 H        -2.784901        -2.129680        -0.650379
 H        -1.296306        -1.464534         1.226249
 H        -0.185672        -2.135946        -0.046758
 H        -1.338899         1.397871         0.981815
 H         0.008111         2.019126        -0.129657
 H        -2.747698         2.178135        -0.737704
 H        -1.686698         1.791246        -1.903358
