19
Iteration:  2049charge 0 multiplicity 1
 O        -3.982620         0.294425        -1.354058
 C        -2.624800         0.023418        -1.408676
 C        -2.127338        -0.992251        -2.438831
 C        -2.142473        -1.300816        -0.870804
 C        -0.826485        -1.366206        -0.097491
 C         0.046612        -0.045439        -0.043364
 O         1.224988         0.058111         0.049486
 C        -0.894896         1.280797         0.005621
 C        -1.680347         1.270975        -1.268326
 H        -4.173533         1.012097        -2.065490
 H        -2.955212        -1.416846        -3.010788
 H        -1.176302        -0.705047        -2.925138
 H        -2.825227        -2.146067        -0.651106
 H        -0.980900        -1.551206         1.006836
 H        -0.215087        -2.270786        -0.283326
 H        -1.447874         1.108092         1.032277
 H        -0.259366         2.163352         0.061458
 H        -2.364372         1.980377        -1.488070
 H        -1.044254         1.022738        -2.134195
