19
Iteration:  4417charge 0 multiplicity 1
 O        -3.995701         0.074396        -1.647315
 C        -2.593297         0.041666        -1.395929
 C        -1.833952        -0.859641        -2.314192
 C        -2.106482        -1.238026        -0.858249
 C        -0.905707        -1.288778         0.032013
 C        -0.009148        -0.064073        -0.216290
 O         1.231886        -0.204914        -0.228139
 C        -0.684967         1.376536        -0.021882
 C        -2.071595         1.483344        -0.814952
 H        -4.680952        -0.096818        -0.970322
 H        -2.369756        -1.473375        -3.066166
 H        -0.953768        -0.556565        -2.659296
 H        -2.849304        -2.051746        -0.709583
 H        -1.173487        -1.363995         1.156565
 H        -0.196766        -2.174181        -0.306734
 H        -0.850264         1.488299         1.077599
 H         0.045033         2.087560        -0.263028
 H        -2.890935         2.054999        -0.261236
 H        -1.954968         2.032336        -1.737538
