19
Iteration:  1830charge 0 multiplicity 1
 O        -4.059434         0.170899        -1.217440
 C        -2.571996         0.044024        -1.492609
 C        -2.221676        -0.963763        -2.556319
 C        -2.070184        -1.209184        -0.952732
 C        -0.843661        -1.261462        -0.101948
 C         0.037281        -0.022745         0.021865
 O         1.268667        -0.108566         0.331017
 C        -0.684546         1.299851        -0.201469
 C        -1.818238         1.323384        -1.298406
 H        -4.352423         0.507753        -2.047298
 H        -3.067304        -1.567413        -3.037847
 H        -1.431018        -0.848834        -3.261432
 H        -2.800626        -1.978896        -0.683517
 H        -1.124758        -1.733809         0.825272
 H        -0.169829        -2.046162        -0.464863
 H        -1.120646         1.357895         0.772634
 H         0.073001         2.033346        -0.473181
 H        -2.430503         2.248389        -1.065029
 H        -1.406096         1.783903        -2.181353
