19
Iteration:   935
 O        -3.984139         0.353939        -0.901194
 C        -2.583071         0.007363        -1.484365
 C        -2.651110        -1.109352        -2.491647
 C        -1.927303        -1.240828        -1.047546
 C        -0.424290        -1.176529        -0.638025
 C        -0.021143         0.053985         0.041077
 O         0.839055        -0.086423         0.954845
 C        -0.712284         1.308330        -0.419860
 C        -1.533886         1.172154        -1.718534
 H        -3.686407         0.240659         0.120882
 H        -3.678735        -1.683158        -2.571657
 H        -2.054006        -1.048745        -3.414295
 H        -2.574929        -1.912780        -0.433242
 H        -0.070996        -2.155441        -0.260076
 H         0.326798        -1.083887        -1.458664
 H        -1.426969         1.568197         0.375034
 H         0.113186         2.025237        -0.295280
 H        -2.066792         2.137512        -2.030065
 H        -0.899487         0.735037        -2.542796
