19
Iteration:  2050
 O        -3.985437         0.296702        -1.359196
 C        -2.624795         0.024882        -1.398236
 C        -2.117633        -0.997575        -2.442961
 C        -2.133647        -1.302978        -0.857453
 C        -0.826941        -1.357205        -0.112564
 C         0.042644        -0.036496        -0.053168
 O         1.219791         0.049886         0.056038
 C        -0.884477         1.276440         0.004009
 C        -1.682515         1.272775        -1.266522
 H        -4.188630         1.047598        -2.091413
 H        -2.973803        -1.456762        -3.017219
 H        -1.196434        -0.715842        -2.918643
 H        -2.832599        -2.151294        -0.655118
 H        -0.960727        -1.538813         1.000152
 H        -0.228465        -2.272570        -0.278002
 H        -1.442368         1.110024         1.004236
 H        -0.263905         2.164618         0.066732
 H        -2.412268         1.973978        -1.456069
 H        -1.082192         1.018581        -2.074789
