19
Iteration:  3686charge 0 multiplicity 1
 O        -3.840267         0.262660        -0.896544
 C        -2.581790        -0.013380        -1.409823
 C        -2.577453        -1.111954        -2.519043
 C        -1.974713        -1.235249        -1.002572
 C        -0.500485        -1.185634        -0.760447
 C        -0.011141         0.033106        -0.006096
 O         0.823950         0.032040         0.847171
 C        -0.793922         1.305816        -0.333750
 C        -1.594277         1.170444        -1.591463
 H        -3.684966         0.276572         0.024814
 H        -3.476388        -1.713848        -2.651809
 H        -1.983929        -0.939766        -3.440613
 H        -2.700795        -1.753167        -0.377207
 H        -0.051024        -2.069818        -0.363170
 H         0.043468        -1.081008        -1.727194
 H        -1.499064         1.426366         0.570271
 H        -0.037943         2.063635        -0.290420
 H        -1.734804         2.069285        -2.024809
 H        -0.783713         0.732218        -2.211761
