19
Iteration:  3442charge 0 multiplicity 1
 O        -4.031875         0.336927        -1.217212
 C        -2.648431         0.040010        -1.457501
 C        -2.172033        -1.013587        -2.479266
 C        -2.020903        -1.205122        -0.955446
 C        -0.675524        -1.348817        -0.257929
 C        -0.020461        -0.026889        -0.020651
 O         1.182817         0.008850         0.274070
 C        -0.916801         1.228483        -0.095010
 C        -1.701952         1.266444        -1.354747
 H        -4.238494        -0.018155        -0.268049
 H        -2.877801        -1.721654        -2.841988
 H        -1.232583        -0.706805        -3.065063
 H        -2.795646        -1.927416        -0.680819
 H        -0.558567        -2.025558         0.547252
 H        -0.003390        -1.792054        -1.017944
 H        -1.635806         1.198564         0.754552
 H        -0.160974         2.069130        -0.007769
 H        -2.409813         2.183951        -1.319285
 H        -1.193432         1.209329        -2.353270
