19
Iteration:  4483
 O        -4.043867         0.106037        -1.567790
 C        -2.677535         0.062716        -1.350747
 C        -1.927271        -0.783867        -2.397976
 C        -2.051209        -1.317394        -0.960760
 C        -0.820530        -1.245756        -0.051479
 C         0.021732        -0.040089        -0.079000
 O         1.209960        -0.166466         0.060564
 C        -0.576750         1.258009        -0.392746
 C        -2.131603         1.353947        -0.797846
 H        -4.430670         0.353642        -0.716595
 H        -2.432861        -1.153885        -3.222529
 H        -0.997921        -0.355253        -2.678063
 H        -2.909471        -1.920078        -0.641225
 H        -1.177894        -1.483674         1.028044
 H         0.008788        -2.081783        -0.187838
 H        -0.395463         1.853588         0.562302
 H         0.026959         1.709973        -1.120392
 H        -2.726120         1.657329         0.119810
 H        -2.228204         2.201926        -1.472401
