19
Iteration:   205
 O        -4.042889         0.083500        -1.535996
 C        -2.534182         0.089422        -1.430527
 C        -1.901843        -1.025937        -2.303803
 C        -2.126061        -1.134900        -0.861766
 C        -0.946382        -1.197057         0.081910
 C        -0.019747        -0.004710        -0.050429
 O         1.179868        -0.267025        -0.224518
 C        -0.747367         1.380171         0.013631
 C        -1.819891         1.403177        -1.165197
 H        -4.491081        -0.100611        -0.623336
 H        -2.651641        -1.462710        -2.849555
 H        -0.959948        -0.966671        -2.762526
 H        -2.934227        -1.785289        -0.611469
 H        -1.368604        -1.148435         1.100946
 H        -0.335290        -2.065152         0.011303
 H        -1.280104         1.521146         0.978945
 H         0.076436         2.106794        -0.071334
 H        -2.390841         2.252914        -1.166957
 H        -1.272047         1.731239        -2.060493
