19
Iteration:  4813
 O        -4.060943         0.130539        -1.074264
 C        -2.649287         0.070179        -1.326739
 C        -2.246779        -0.692565        -2.471433
 C        -1.978409        -1.300235        -1.084333
 C        -0.482001        -1.373379        -0.667888
 C         0.020836        -0.094955        -0.093837
 O         0.710598        -0.073082         0.915350
 C        -0.350759         1.178265        -0.806750
 C        -1.941784         1.430506        -1.005762
 H        -4.068909        -0.154243        -0.083407
 H        -3.089322        -1.063401        -3.036478
 H        -1.443710        -0.262260        -3.148188
 H        -2.526164        -2.189285        -0.851748
 H        -0.422165        -2.025248         0.180185
 H         0.126036        -1.834291        -1.402244
 H         0.181964         2.004849        -0.355262
 H         0.283865         1.151836        -1.775919
 H        -2.489765         2.052124        -0.274903
 H        -1.991973         2.061622        -1.988593
