19
Iteration:   285
 O        -4.032117         0.135399        -1.683060
 C        -2.553084         0.151676        -1.427578
 C        -1.931364        -1.064041        -2.206625
 C        -2.205170        -1.114596        -0.666851
 C        -0.907440        -1.301935         0.006453
 C         0.016780        -0.050203        -0.086038
 O         1.232044        -0.124869        -0.219027
 C        -0.761320         1.282018        -0.023848
 C        -1.805748         1.449414        -1.183772
 H        -4.550805        -0.153758        -0.802568
 H        -2.765026        -1.463740        -2.800250
 H        -0.844212        -1.225867        -2.389882
 H        -3.100541        -1.723047        -0.370343
 H        -1.074620        -1.524843         1.074429
 H        -0.490638        -2.222685        -0.425530
 H        -1.388799         1.236679         0.933561
 H        -0.026003         2.058173         0.188484
 H        -2.523650         2.177344        -0.727177
 H        -1.224134         1.725392        -2.012294
