19
Iteration:   120
 O        -3.976869         0.174728        -1.716488
 C        -2.604933         0.019579        -1.397139
 C        -2.193838        -1.117309        -2.317946
 C        -2.122697        -1.220167        -0.764714
 C        -0.861616        -1.207890        -0.075006
 C         0.104940         0.008583        -0.041805
 O         1.309429        -0.182219        -0.034013
 C        -0.689999         1.408719        -0.054091
 C        -1.899178         1.376635        -1.064409
 H        -4.427725         0.791616        -0.990294
 H        -2.979964        -1.674254        -2.703758
 H        -1.272690        -1.168798        -2.860024
 H        -2.875278        -1.882897        -0.364845
 H        -1.165256        -1.235715         1.022953
 H        -0.371679        -2.159486        -0.240876
 H        -1.101876         1.741656         0.939811
 H         0.041025         2.153905        -0.377846
 H        -2.811403         1.876505        -0.600560
 H        -1.699280         1.730312        -2.050731
