19
Iteration:  4739
 O        -4.030548         0.147693        -1.001670
 C        -2.687135         0.057789        -1.268357
 C        -2.242389        -0.542067        -2.472511
 C        -1.902466        -1.315150        -1.164193
 C        -0.539023        -1.453764        -0.523382
 C         0.026312        -0.048540        -0.141210
 O         0.687675         0.042747         0.963477
 C        -0.377939         1.099282        -1.014768
 C        -1.887116         1.303409        -0.915474
 H        -4.450317        -0.311592        -1.688047
 H        -2.986856        -1.110378        -3.053957
 H        -1.435168        -0.030713        -3.211147
 H        -2.542173        -2.156582        -1.085385
 H        -0.455296        -2.193975         0.352105
 H         0.137815        -1.907305        -1.312388
 H         0.166251         1.933086        -0.747117
 H        -0.012039         0.935843        -2.007432
 H        -2.111381         1.683511         0.116805
 H        -2.089148         2.181392        -1.502032
