19
Iteration:  4190
 O        -4.080669         0.251645        -1.404991
 C        -2.690699         0.041024        -1.452281
 C        -2.173870        -0.938234        -2.408341
 C        -2.068938        -1.212720        -0.871189
 C        -0.684149        -1.360997        -0.244936
 C         0.097737        -0.033474        -0.082924
 O         1.244713         0.034065         0.150800
 C        -0.836346         1.175222        -0.051418
 C        -1.809217         1.318505        -1.248738
 H        -4.431595        -0.005511        -0.463517
 H        -2.663525        -1.678562        -2.926578
 H        -1.120222        -0.741881        -2.746290
 H        -2.753029        -1.980150        -0.494036
 H        -0.797299        -1.622334         0.894595
 H         0.002069        -2.158132        -0.516397
 H        -1.452791         1.239385         0.929426
 H        -0.137149         1.977929        -0.008742
 H        -2.515936         2.108423        -0.922144
 H        -1.333240         1.702067        -2.168088
