19
Iteration:  4650
 O        -4.115342         0.181116        -1.202671
 C        -2.714907        -0.007342        -1.402534
 C        -2.251008        -0.720565        -2.571390
 C        -1.995270        -1.277704        -1.098893
 C        -0.578831        -1.398365        -0.395031
 C         0.084444        -0.044214        -0.017880
 O         1.019996        -0.011141         0.803247
 C        -0.415164         1.220841        -0.753562
 C        -2.005758         1.306058        -0.967892
 H        -4.178124         0.281669        -0.274546
 H        -3.041784        -1.230541        -3.313301
 H        -1.429025        -0.289193        -3.165548
 H        -2.641705        -2.119515        -0.773043
 H        -0.595313        -2.146932         0.456573
 H         0.124051        -1.979611        -1.103712
 H        -0.052306         2.104121        -0.299286
 H         0.079355         1.254542        -1.710412
 H        -2.558317         1.673733        -0.079958
 H        -2.235776         2.065002        -1.629431
