19
Iteration:  4209charge 0 multiplicity 1
 O        -4.034497         0.197135        -1.418802
 C        -2.588982         0.039144        -1.419011
 C        -2.014249        -0.971231        -2.345601
 C        -2.081752        -1.271482        -0.862913
 C        -0.729212        -1.309809        -0.135426
 C         0.020621         0.012879        -0.088021
 O         1.179667        -0.073351        -0.006025
 C        -0.872428         1.265133        -0.022969
 C        -1.828757         1.392941        -1.201070
 H        -4.405891        -0.011823        -0.467982
 H        -2.841039        -1.290096        -2.911596
 H        -1.092567        -0.732022        -2.894095
 H        -2.949630        -1.868119        -0.643371
 H        -0.849006        -1.803506         0.794214
 H        -0.158870        -2.005693        -0.809086
 H        -1.298801         1.033046         0.949849
 H        -0.304802         2.223539         0.106265
 H        -2.529854         2.316159        -1.151395
 H        -1.315409         1.545208        -2.079904
