19
Iteration:  4672charge 0 multiplicity 1
 O        -4.064859         0.128868        -1.159253
 C        -2.639092         0.031826        -1.335156
 C        -2.273695        -0.833644        -2.541968
 C        -1.970711        -1.332884        -1.226759
 C        -0.636479        -1.283831        -0.512136
 C         0.058907         0.008659        -0.054703
 O         0.873852        -0.009352         0.813956
 C        -0.384039         1.214570        -0.768131
 C        -1.899825         1.317968        -0.867337
 H        -4.266878         0.973834        -0.602103
 H        -3.189799        -1.450653        -3.016922
 H        -1.522075        -0.666425        -3.362292
 H        -2.587836        -2.178647        -0.850385
 H        -0.746660        -1.869865         0.447729
 H         0.164902        -1.975243        -0.938977
 H        -0.103679         2.126668        -0.378901
 H         0.118219         1.219115        -1.713231
 H        -2.231679         1.531584         0.175006
 H        -2.212686         2.180052        -1.331964
