19
Iteration:  3488charge 0 multiplicity 1
 O        -3.930865         0.309517        -1.285120
 C        -2.589547         0.040223        -1.418939
 C        -2.365162        -1.142636        -2.450374
 C        -2.070611        -1.288416        -0.978786
 C        -0.670307        -1.296572        -0.439608
 C         0.041397         0.100407        -0.066379
 O         1.122256         0.066747         0.377723
 C        -0.830170         1.229089        -0.027293
 C        -1.654600         1.269068        -1.305179
 H        -4.346024        -0.032526        -0.408813
 H        -3.466390        -1.364519        -2.706363
 H        -1.643716        -0.828743        -3.220401
 H        -2.721693        -1.944031        -0.324960
 H        -0.756781        -1.889044         0.454083
 H         0.007518        -1.839865        -1.132696
 H        -1.399265         0.857983         0.832492
 H        -0.434407         2.213261         0.191584
 H        -2.380246         2.009789        -1.556020
 H        -0.811369         1.152964        -2.162116
