19
Iteration:  1632charge 0 multiplicity 1
 O        -4.002614         0.321422        -1.487883
 C        -2.571172         0.086972        -1.502242
 C        -2.016723        -1.036152        -2.368465
 C        -2.087354        -1.291490        -0.906672
 C        -0.874003        -1.308579        -0.067418
 C        -0.028748        -0.025924        -0.023550
 O         1.223492        -0.108974        -0.094977
 C        -0.804889         1.280381         0.093520
 C        -1.793553         1.359914        -1.132057
 H        -4.515491        -0.425753        -0.997134
 H        -2.805378        -1.482457        -2.878818
 H        -0.954390        -0.826949        -2.780858
 H        -2.981519        -1.925665        -0.704702
 H        -1.182514        -1.522561         0.984802
 H        -0.101790        -2.073334        -0.299993
 H        -1.515965         1.289410         1.019874
 H        -0.190208         2.267507         0.113190
 H        -2.605893         2.183750        -1.082242
 H        -1.121134         1.617016        -1.976101
