19
Iteration:  4594charge 0 multiplicity 1
 O        -4.021322         0.136982        -1.295628
 C        -2.658060         0.075084        -1.329270
 C        -2.057401        -0.744099        -2.457421
 C        -2.027798        -1.263772        -1.040672
 C        -0.765475        -1.294512        -0.304208
 C         0.048647        -0.069292        -0.100703
 O         1.041786        -0.094955         0.592345
 C        -0.479210         1.258694        -0.846622
 C        -2.035960         1.337057        -0.826600
 H        -4.333535        -0.695900        -0.869515
 H        -2.921992        -1.035828        -3.110323
 H        -1.061108        -0.492374        -2.842759
 H        -2.688025        -2.118170        -0.789392
 H        -1.155625        -1.670915         0.680376
 H        -0.079814        -2.145157        -0.713265
 H        -0.216953         2.030721        -0.130721
 H        -0.024539         1.536158        -1.775427
 H        -2.327653         1.429482         0.231733
 H        -2.381108         2.179290        -1.345009
