19
Iteration:  1687charge 0 multiplicity 1
 O        -3.990058         0.527442        -1.411848
 C        -2.615509         0.081614        -1.435925
 C        -2.043151        -1.105254        -2.358685
 C        -2.069951        -1.315028        -0.834633
 C        -0.700398        -1.396778        -0.083198
 C        -0.065777        -0.076160         0.053390
 O         1.123648         0.046673        -0.122246
 C        -0.942514         1.119882         0.081061
 C        -1.665116         1.334629        -1.263785
 H        -4.482869        -0.165886        -1.805713
 H        -2.694944        -1.654909        -3.049699
 H        -0.995371        -0.885173        -2.715850
 H        -2.888639        -2.001467        -0.598039
 H        -0.931911        -1.685694         0.932788
 H         0.093828        -2.074929        -0.435841
 H        -1.885250         1.089643         0.741772
 H        -0.341055         2.088956         0.170250
 H        -2.339369         2.267274        -1.257945
 H        -1.005225         1.413471        -2.133654
