19
Iteration:  4393charge 0 multiplicity 1
 O        -3.969908         0.025005        -1.656412
 C        -2.535123         0.119426        -1.375306
 C        -1.784834        -0.740433        -2.233468
 C        -2.094244        -1.223516        -0.837456
 C        -0.859054        -1.343220         0.060885
 C        -0.089025        -0.082102        -0.014725
 O         1.138012        -0.159725        -0.410845
 C        -0.718404         1.252788        -0.035357
 C        -2.040882         1.420069        -0.913530
 H        -4.510758         0.311995        -0.958517
 H        -2.458200        -1.156749        -3.006660
 H        -0.776578        -0.588815        -2.595523
 H        -2.848370        -1.993350        -0.625662
 H        -1.369033        -1.285464         1.126009
 H        -0.109087        -2.216159        -0.073997
 H        -1.132925         1.456857         0.989003
 H         0.056438         2.051277        -0.204918
 H        -2.737837         1.958358        -0.318518
 H        -1.904120         2.047430        -1.892507
