19
Iteration:  3687
 O        -3.840870         0.262161        -0.893302
 C        -2.579835        -0.024764        -1.409139
 C        -2.572608        -1.099237        -2.512474
 C        -1.967957        -1.242158        -1.002864
 C        -0.500543        -1.182909        -0.767143
 C        -0.010545         0.039286        -0.016794
 O         0.821317         0.026793         0.853292
 C        -0.794953         1.302571        -0.322793
 C        -1.600553         1.175816        -1.604708
 H        -3.701582         0.297909         0.005900
 H        -3.485312        -1.720902        -2.653747
 H        -2.016136        -0.937960        -3.414439
 H        -2.698436        -1.752690        -0.361756
 H        -0.058152        -2.093761        -0.339887
 H         0.036775        -1.094031        -1.715372
 H        -1.519525         1.484505         0.558220
 H        -0.017249         2.064915        -0.304663
 H        -1.720299         2.079616        -2.030564
 H        -0.758754         0.709073        -2.232628
