19
Iteration:  2748
 O        -4.048086         0.278007        -1.289749
 C        -2.655588         0.076120        -1.463572
 C        -2.145974        -0.959226        -2.416125
 C        -2.036557        -1.222097        -0.991449
 C        -0.702116        -1.342648        -0.191013
 C         0.024162        -0.082306         0.022806
 O         1.184062        -0.013694         0.242572
 C        -0.823365         1.227969        -0.146998
 C        -1.772473         1.289318        -1.340959
 H        -4.148062         0.245645        -0.283773
 H        -2.921355        -1.391177        -3.011836
 H        -1.215142        -0.707139        -2.969407
 H        -2.676472        -2.069978        -0.694104
 H        -1.082372        -1.733228         0.819330
 H        -0.126068        -2.194038        -0.601832
 H        -1.330493         1.265796         0.840616
 H        -0.034501         2.039884        -0.166096
 H        -2.636674         2.093491        -1.292876
 H        -1.224406         1.657813        -2.352081
