19
Iteration:  3007charge 0 multiplicity 1
 O        -4.049621         0.259523        -1.615451
 C        -2.641843         0.024406        -1.418366
 C        -2.004979        -0.908850        -2.337211
 C        -2.078733        -1.370092        -0.848551
 C        -0.799946        -1.275751        -0.043597
 C         0.019038        -0.064151        -0.071359
 O         1.264422        -0.099425        -0.055394
 C        -0.732601         1.283265        -0.078128
 C        -1.953773         1.296793        -1.002080
 H        -4.356118         0.890485        -0.875932
 H        -2.585885        -1.361880        -3.222205
 H        -0.950750        -0.547117        -2.600945
 H        -2.738593        -2.195278        -0.577007
 H        -1.149823        -1.348504         0.995877
 H        -0.214126        -2.169131        -0.254696
 H        -1.009518         1.567697         0.909455
 H        -0.077901         2.130166        -0.450629
 H        -2.768791         1.899476        -0.513574
 H        -1.830909         2.013380        -1.897783
