19
Iteration:  4357charge 0 multiplicity 1
 O        -4.026300         0.234353        -1.718856
 C        -2.645154         0.061389        -1.424224
 C        -1.797631        -0.869454        -2.259325
 C        -2.010825        -1.424463        -0.847580
 C        -0.836211        -1.233058         0.193402
 C        -0.019139        -0.025935        -0.078033
 O         1.170803        -0.125417        -0.554960
 C        -0.809372         1.235563         0.155937
 C        -1.981943         1.347063        -0.887902
 H        -4.416937         0.541389        -0.944180
 H        -2.298853        -1.291198        -3.127601
 H        -0.648082        -0.599609        -2.457192
 H        -2.821453        -2.143824        -0.767243
 H        -1.421531        -1.089744         1.185676
 H        -0.233476        -2.105331         0.385529
 H        -1.335327         1.054663         1.127264
 H        -0.144873         2.171458         0.248053
 H        -2.751373         1.963481        -0.487903
 H        -1.597641         1.933147        -1.842795
