19
Iteration:   385charge 0 multiplicity 1
 O        -3.912549         0.160758        -1.248779
 C        -2.508743         0.076202        -1.578049
 C        -2.180307        -1.056855        -2.406318
 C        -2.100915        -1.148235        -0.822691
 C        -0.837085        -1.305924         0.098326
 C        -0.028243        -0.069553        -0.013731
 O         1.189540        -0.064223        -0.085378
 C        -0.897196         1.235728        -0.015642
 C        -1.674034         1.405213        -1.419671
 H        -4.273164         0.782077        -2.051736
 H        -2.860045        -1.625034        -3.032318
 H        -1.175590        -1.004916        -2.850611
 H        -2.990325        -1.558746        -0.424936
 H        -1.256350        -1.325549         1.109231
 H        -0.383395        -2.318846         0.095331
 H        -1.749488         0.996113         0.689906
 H        -0.272122         2.112978         0.314963
 H        -2.303918         2.318438        -1.220935
 H        -1.003804         1.712934        -2.188995
