19
Iteration:  2981charge 0 multiplicity 1
 O        -3.976069         0.206819        -1.634471
 C        -2.572946         0.083620        -1.370202
 C        -2.032027        -0.937440        -2.333917
 C        -2.136647        -1.330685        -0.880319
 C        -0.890970        -1.377683        -0.017747
 C         0.077096        -0.092236        -0.178341
 O         1.237403         0.028025        -0.032847
 C        -0.721619         1.241502        -0.069147
 C        -1.932543         1.390961        -0.970411
 H        -4.502364         0.488186        -0.857446
 H        -2.803938        -1.503124        -2.863694
 H        -1.072001        -0.950975        -2.781755
 H        -3.044585        -1.924163        -0.617696
 H        -1.093034        -1.636191         1.062397
 H        -0.264750        -2.157497        -0.530294
 H        -0.934835         1.316344         1.086900
 H        -0.085433         2.084412        -0.219840
 H        -2.730376         2.023979        -0.625280
 H        -1.689335         2.042199        -1.948990
