19
Iteration:   619charge 0 multiplicity 1
 O        -3.991820         0.398625        -1.118103
 C        -2.594785         0.036322        -1.400185
 C        -2.472422        -1.124447        -2.354855
 C        -2.032791        -1.300347        -0.908995
 C        -0.530533        -1.303707        -0.660991
 C        -0.061546        -0.007642         0.019008
 O         0.963201         0.001198         0.695491
 C        -0.764813         1.303362        -0.250262
 C        -1.532787         1.172458        -1.574894
 H        -3.903566         1.253488        -0.492190
 H        -3.319215        -1.766950        -2.803369
 H        -1.687085        -1.048935        -3.102646
 H        -2.713751        -2.038495        -0.450250
 H         0.016652        -2.098476        -0.137856
 H        -0.070120        -1.313768        -1.674380
 H        -1.636581         1.347941         0.516077
 H        -0.068416         2.145963        -0.058708
 H        -1.943921         2.131909        -1.769123
 H        -0.913409         0.959236        -2.457840
