19
Iteration:  1207
 O        -3.993570         0.186723        -1.567290
 C        -2.594236         0.163972        -1.437605
 C        -2.069613        -0.979229        -2.356879
 C        -2.119654        -1.228539        -0.843348
 C        -0.851686        -1.310846        -0.020943
 C         0.005187        -0.077990        -0.040282
 O         1.269115        -0.082174        -0.068153
 C        -0.872804         1.211202         0.096324
 C        -1.737559         1.363557        -1.222744
 H        -4.339284         0.759758        -0.726447
 H        -2.899024        -1.567428        -2.875714
 H        -1.120123        -0.827688        -2.778054
 H        -2.902513        -1.924999        -0.568447
 H        -1.017893        -1.651628         1.037606
 H        -0.117514        -2.089022        -0.581039
 H        -1.645562         1.128138         0.924032
 H        -0.427337         2.224321         0.103135
 H        -2.388665         2.276604        -1.107687
 H        -1.222391         1.568037        -2.164773
