19
Iteration:  3625charge 0 multiplicity 1
 O        -3.997297         0.390915        -1.091028
 C        -2.605554         0.035884        -1.450598
 C        -2.412705        -1.110583        -2.400234
 C        -1.982253        -1.363546        -0.947970
 C        -0.504811        -1.236841        -0.720429
 C        -0.000540         0.057470        -0.018306
 O         0.968642         0.033740         0.675184
 C        -0.815149         1.245509        -0.227330
 C        -1.610102         1.210360        -1.488450
 H        -4.164991        -0.029622        -0.293642
 H        -3.340437        -1.689716        -2.663669
 H        -1.739213        -0.989940        -3.210611
 H        -2.540025        -1.934615        -0.182697
 H        -0.253870        -1.913258         0.168825
 H         0.008692        -1.614573        -1.609696
 H        -1.421358         1.267891         0.658258
 H        -0.090631         2.079508        -0.040060
 H        -2.329151         2.120342        -1.469334
 H        -1.065690         1.139920        -2.439638
