19
Iteration:   413
 O        -3.912207         0.449990        -1.285580
 C        -2.583979        -0.013226        -1.465727
 C        -2.174550        -1.116621        -2.402771
 C        -2.058314        -1.291885        -0.946076
 C        -0.879413        -1.234521        -0.012642
 C        -0.010322        -0.009715        -0.009313
 O         1.210569        -0.021655         0.010871
 C        -0.826973         1.250739        -0.010730
 C        -1.742190         1.276403        -1.342973
 H        -4.437573        -0.385164        -1.678667
 H        -2.831613        -1.830722        -2.845731
 H        -1.284209        -0.987856        -3.102688
 H        -2.885559        -1.999224        -0.663907
 H        -1.341655        -1.474416         0.986592
 H        -0.277958        -2.118337        -0.221233
 H        -1.513003         1.119906         0.814256
 H        -0.190445         2.092632         0.118630
 H        -2.287046         2.193497        -1.345779
 H        -0.971890         1.494047        -2.178465
