19
Iteration:  2596charge 0 multiplicity 1
 O        -4.011406         0.403279        -1.247842
 C        -2.559456         0.079687        -1.501890
 C        -2.178236        -1.046219        -2.378723
 C        -2.121779        -1.297596        -0.829596
 C        -0.711993        -1.384590        -0.252031
 C         0.006906        -0.008046        -0.078075
 O         1.203551         0.087850         0.132355
 C        -1.036983         1.171421         0.074308
 C        -1.577559         1.272089        -1.334811
 H        -4.497153         0.175062        -2.147410
 H        -2.902614        -1.714225        -2.771266
 H        -1.171218        -1.061786        -3.053140
 H        -2.997852        -1.855646        -0.504412
 H        -0.667687        -1.937539         0.682096
 H        -0.128855        -1.911670        -1.043494
 H        -1.685822         1.017792         0.929339
 H        -0.476642         2.141227         0.337805
 H        -2.143812         2.146152        -1.728405
 H        -0.814836         0.995154        -2.027744
