19
Iteration:  2104charge 0 multiplicity 1
 O        -4.013785         0.107534        -1.446946
 C        -2.604990         0.170475        -1.426748
 C        -2.205068        -0.998284        -2.347853
 C        -2.110884        -1.171055        -0.831315
 C        -0.799781        -1.378016        -0.185434
 C         0.076738        -0.095222        -0.052077
 O         1.242404        -0.032768         0.210351
 C        -0.712685         1.261451        -0.148584
 C        -1.826994         1.445901        -1.179101
 H        -4.403430         0.149284        -2.437599
 H        -3.037144        -1.533565        -2.998394
 H        -1.263738        -1.058286        -2.820598
 H        -2.970585        -1.724792        -0.395620
 H        -0.947102        -1.828078         0.830667
 H        -0.177312        -2.133435        -0.694167
 H        -1.084474         1.449109         0.967334
 H         0.040318         2.035716        -0.273142
 H        -2.654479         2.047336        -0.878000
 H        -1.513145         1.855914        -2.250307
