19
Iteration:  4702
 O        -3.983339         0.074849        -1.045880
 C        -2.631732         0.098565        -1.343511
 C        -2.154978        -0.720617        -2.484723
 C        -2.049764        -1.291587        -1.122491
 C        -0.598637        -1.443908        -0.546445
 C         0.040832        -0.073687        -0.161853
 O         0.744669         0.055461         0.902345
 C        -0.399644         1.205028        -0.943317
 C        -1.885332         1.327726        -0.827475
 H        -4.440437         0.800143        -1.428333
 H        -2.921407        -1.286595        -3.114741
 H        -1.296679        -0.437497        -3.005699
 H        -2.789486        -2.115100        -0.912654
 H        -0.526886        -2.136611         0.228247
 H        -0.003025        -1.842129        -1.341729
 H        -0.015862         2.215529        -0.566737
 H        -0.117218         1.102898        -2.036422
 H        -2.200160         1.333015         0.224975
 H        -2.293058         2.337414        -1.348449
