19
Iteration:  1030charge 0 multiplicity 1
 O        -3.990413         0.341455        -1.230246
 C        -2.661878         0.092915        -1.515389
 C        -2.474207        -1.079518        -2.406860
 C        -2.097805        -1.267901        -0.925610
 C        -0.634985        -1.244412        -0.561703
 C        -0.008821         0.003737         0.066932
 O         1.128280         0.024823         0.596761
 C        -0.793855         1.242412        -0.155256
 C        -1.528763         1.165265        -1.476962
 H        -4.104716         0.451131        -0.352365
 H        -3.370279        -1.655630        -2.744745
 H        -1.671479        -1.206841        -3.060962
 H        -2.727907        -1.933129        -0.298365
 H        -0.259603        -2.084524         0.035730
 H         0.019084        -1.622425        -1.390383
 H        -1.400654         1.056285         0.782665
 H        -0.272277         2.245223        -0.082804
 H        -1.966955         2.144284        -1.776162
 H        -0.617363         1.083483        -2.058435
