19
Iteration:  1362charge 0 multiplicity 1
 O        -3.943038         0.207290        -1.813115
 C        -2.557131         0.048958        -1.458108
 C        -1.887756        -0.961967        -2.234707
 C        -2.240925        -1.247722        -0.833772
 C        -0.927498        -1.205253         0.145234
 C         0.018570        -0.046006        -0.090424
 O         1.221812        -0.177403        -0.367766
 C        -0.689813         1.271462         0.091134
 C        -1.991164         1.390588        -0.893979
 H        -4.379893         0.430257        -0.973767
 H        -2.536953        -1.239433        -3.054737
 H        -0.831682        -0.906504        -2.485428
 H        -2.938737        -2.030559        -0.491969
 H        -1.220404        -1.175845         1.175423
 H        -0.441263        -2.192314         0.045425
 H        -1.032920         1.155711         1.087175
 H         0.069631         1.981922         0.226669
 H        -2.802819         1.890720        -0.412560
 H        -1.595270         1.881133        -1.759714
