19
Iteration:  3704
 O        -3.887242         0.285049        -0.863344
 C        -2.610141         0.092331        -1.442453
 C        -2.576410        -1.086591        -2.375575
 C        -1.896540        -1.336170        -1.082125
 C        -0.381644        -1.233610        -0.836855
 C        -0.062774         0.044021         0.046218
 O         0.783040        -0.045976         0.885876
 C        -0.821552         1.393335        -0.347459
 C        -1.565086         1.125913        -1.675673
 H        -3.727406         0.621350        -0.011906
 H        -3.516201        -1.514169        -2.583926
 H        -1.811801        -0.982527        -3.223380
 H        -2.366096        -2.047261        -0.417544
 H        -0.037608        -1.997365        -0.148441
 H         0.267450        -1.385964        -1.754680
 H        -1.407532         1.649605         0.528045
 H        -0.031467         2.162908        -0.458208
 H        -2.357136         1.974817        -1.956215
 H        -0.951879         0.982129        -2.525892
