19
Iteration:  1786
 O        -4.014289         0.296346        -1.287822
 C        -2.680198         0.029884        -1.427635
 C        -2.005526        -1.034521        -2.351364
 C        -2.159251        -1.296711        -0.872628
 C        -0.799249        -1.358178        -0.193238
 C        -0.030637        -0.011756        -0.133160
 O         1.147612        -0.019523         0.198531
 C        -0.810014         1.274114        -0.112716
 C        -1.670229         1.356209        -1.293116
 H        -4.253950         1.142837        -1.459980
 H        -2.555922        -1.709615        -2.992623
 H        -1.149460        -1.019457        -2.956514
 H        -2.822578        -2.146826        -0.707758
 H        -0.692879        -1.606939         0.836023
 H        -0.196276        -2.116304        -0.691615
 H        -1.471189         1.099164         0.734912
 H        -0.059604         2.026397         0.096253
 H        -2.396225         2.231156        -1.344848
 H        -1.240642         1.442776        -2.266814
