19
Iteration:  1740
 O        -3.986285         0.306755        -1.372755
 C        -2.583004         0.024245        -1.541668
 C        -2.308710        -1.099722        -2.398150
 C        -2.067333        -1.241680        -0.924814
 C        -0.799382        -1.360227        -0.098355
 C         0.000108         0.000685        -0.002861
 O         1.185275         0.060270         0.021642
 C        -0.815177         1.193408         0.200519
 C        -1.577873         1.358351        -1.296952
 H        -4.306708         0.147499        -2.258165
 H        -2.975174        -1.692809        -2.842588
 H        -1.574574        -1.034198        -3.160958
 H        -2.914098        -1.762015        -0.470816
 H        -1.060074        -1.603615         0.909306
 H        -0.029482        -2.064759        -0.420939
 H        -1.553814         1.033203         0.895651
 H        -0.338931         2.173130         0.331411
 H        -2.298882         2.178693        -1.335462
 H        -0.873820         1.536971        -2.076324
