19
Iteration:  3871
 O        -3.806077         0.301959        -0.694362
 C        -2.547201         0.014914        -1.338495
 C        -2.624677        -1.202263        -2.454087
 C        -1.863732        -1.273553        -1.112401
 C        -0.311801        -1.089242        -0.932842
 C        -0.070489         0.003317        -0.089458
 O         0.517733        -0.079779         1.049774
 C        -0.719476         1.412636        -0.460790
 C        -1.573474         1.119366        -1.742619
 H        -3.837923         0.348435         0.360163
 H        -3.606478        -1.486383        -2.594676
 H        -1.958701        -0.857491        -3.268907
 H        -2.343033        -1.916825        -0.320733
 H         0.239472        -1.968785        -0.536919
 H         0.293173        -0.778728        -1.801684
 H        -1.303479         1.613462         0.422300
 H         0.100432         2.096959        -0.444240
 H        -2.079576         2.128162        -2.158109
 H        -0.943096         0.720339        -2.526971
