19
Iteration:  2569charge 0 multiplicity 1
 O        -3.902689         0.372605        -1.227445
 C        -2.535657         0.015337        -1.488959
 C        -2.153356        -1.108583        -2.440453
 C        -2.085954        -1.311325        -0.883949
 C        -0.741767        -1.267921        -0.229937
 C        -0.048459        -0.005507         0.042672
 O         1.154091         0.052131         0.092547
 C        -0.955897         1.157672        -0.000860
 C        -1.701823         1.270293        -1.318761
 H        -4.032154         1.171855        -1.891572
 H        -3.065099        -1.655212        -2.811859
 H        -1.376708        -0.879428        -3.060444
 H        -2.970208        -1.838214        -0.529954
 H        -0.949007        -1.761213         0.790908
 H        -0.002727        -1.924828        -0.700489
 H        -1.643042         1.055470         0.860439
 H        -0.399487         2.036832         0.188520
 H        -2.456267         2.091205        -1.372858
 H        -1.010319         1.190213        -2.259693
