19
Iteration:  1562
 O        -4.064762         0.122054        -1.620906
 C        -2.650367         0.092561        -1.430869
 C        -2.038549        -0.949686        -2.399416
 C        -2.065931        -1.184732        -0.941029
 C        -0.810922        -1.190803        -0.043645
 C         0.018812        -0.038013        -0.034461
 O         1.203331        -0.201673        -0.000139
 C        -0.661638         1.244490        -0.034449
 C        -1.878850         1.356850        -0.995808
 H        -4.329359         0.600109        -0.884015
 H        -2.910971        -1.454071        -2.925494
 H        -1.140480        -0.632142        -2.928072
 H        -2.827073        -1.879500        -0.585391
 H        -1.272673        -1.203168         0.928063
 H        -0.277753        -2.142528        -0.104228
 H        -0.909829         1.401239         1.121570
 H         0.062604         2.017859        -0.329644
 H        -2.605419         2.051461        -0.669961
 H        -1.517290         1.813568        -1.942896
