19
Iteration:  1334
 O        -3.890058         0.356393        -1.796325
 C        -2.563768         0.023906        -1.382453
 C        -1.870104        -0.981992        -2.238501
 C        -2.066662        -1.267521        -0.835755
 C        -0.860418        -1.357789         0.215088
 C        -0.059557        -0.059127        -0.084380
 O         1.107365        -0.126895        -0.388282
 C        -0.776712         1.290137         0.056585
 C        -1.991358         1.336403        -0.938380
 H        -4.377911         0.799607        -1.003834
 H        -2.578735        -1.576875        -2.938033
 H        -0.928156        -0.790320        -2.698497
 H        -2.853942        -2.013388        -0.634036
 H        -1.285261        -1.287413         1.277143
 H        -0.260719        -2.254324        -0.049710
 H        -1.115436         1.232862         1.174433
 H         0.127075         2.002729        -0.010646
 H        -2.905670         1.924035        -0.578356
 H        -1.594209         1.759864        -1.919107
