19
Iteration:  2842charge 0 multiplicity 1
 O        -3.991707         0.322636        -1.553702
 C        -2.587337         0.085211        -1.396289
 C        -2.247753        -1.033296        -2.365695
 C        -2.094368        -1.234133        -0.790351
 C        -0.690166        -1.389521        -0.141163
 C        -0.009639        -0.097897        -0.051153
 O         1.158069         0.148518        -0.044864
 C        -0.915799         1.088502         0.079225
 C        -1.633402         1.306980        -1.205353
 H        -4.431218         0.388210        -0.694157
 H        -2.918993        -1.300983        -3.131959
 H        -1.159009        -0.818716        -2.769436
 H        -2.838739        -1.977439        -0.406713
 H        -0.859900        -1.685568         0.887331
 H         0.019285        -2.132969        -0.538421
 H        -1.609554         0.976370         0.905847
 H        -0.216705         1.942313         0.162481
 H        -2.210258         2.188324        -1.284225
 H        -0.859725         1.457737        -1.913687
