19
Iteration:  4930
 O        -4.125849        -0.008967        -1.077465
 C        -2.675334         0.112483        -1.368193
 C        -2.113575        -0.506470        -2.526758
 C        -1.956324        -1.260780        -1.181968
 C        -0.735519        -1.372163        -0.302107
 C         0.020690        -0.030374        -0.054378
 O         0.977215        -0.113569         0.704691
 C        -0.448257         1.100085        -0.887480
 C        -1.941230         1.401509        -0.802461
 H        -4.489591        -0.050117        -2.061801
 H        -2.665779        -0.928570        -3.283621
 H        -1.226249        -0.165206        -3.012215
 H        -2.707584        -2.000769        -1.057421
 H        -0.799245        -1.934004         0.567292
 H         0.003882        -1.860953        -0.972657
 H         0.290193         1.959321        -0.571641
 H        -0.064796         0.916918        -1.827393
 H        -2.057713         1.738167         0.289275
 H        -2.287269         2.225303        -1.384499
