19
Iteration:  2966
 O        -4.010090         0.168302        -1.641406
 C        -2.624262         0.117339        -1.423698
 C        -2.046343        -0.983477        -2.338740
 C        -2.151395        -1.237540        -0.792039
 C        -0.762736        -1.378752        -0.091598
 C         0.054960        -0.020403        -0.067733
 O         1.276593        -0.136920        -0.061642
 C        -0.776560         1.299678        -0.025796
 C        -1.952175         1.453085        -1.069720
 H        -4.311123         0.218627        -0.766435
 H        -2.733291        -1.342007        -3.094039
 H        -1.002280        -0.702139        -2.753086
 H        -2.858070        -1.972236        -0.468620
 H        -0.957702        -1.530170         1.000504
 H        -0.135428        -2.236973        -0.329226
 H        -1.350273         1.163063         0.915327
 H        -0.008005         2.132890         0.001965
 H        -2.719186         2.044811        -0.488546
 H        -1.645200         1.997041        -1.874574
