19
Iteration:  1844
 O        -4.115002         0.209257        -1.245017
 C        -2.735198         0.073726        -1.430362
 C        -2.187968        -1.031869        -2.508449
 C        -2.034103        -1.245520        -1.085930
 C        -0.785571        -1.275922        -0.138838
 C         0.092691        -0.015781        -0.069726
 O         1.224381        -0.112843         0.372470
 C        -0.620438         1.287490        -0.182704
 C        -1.756984         1.367885        -1.245334
 H        -4.655565         0.115642        -2.149421
 H        -3.044543        -1.590096        -2.868088
 H        -1.353709        -0.662441        -3.087138
 H        -2.835956        -1.849636        -0.659732
 H        -1.151480        -1.211190         0.879439
 H        -0.142791        -2.131816        -0.336652
 H        -1.041529         1.562780         0.826815
 H         0.031032         2.133220        -0.217894
 H        -2.532312         2.090995        -1.045075
 H        -1.251513         1.354679        -2.229102
