19
Iteration:  3377charge 0 multiplicity 1
 O        -4.105497         0.307079        -1.336424
 C        -2.689703         0.072943        -1.433275
 C        -2.128445        -1.004170        -2.436541
 C        -2.050163        -1.329878        -1.004854
 C        -0.658706        -1.363156        -0.101097
 C         0.033063        -0.060143         0.027183
 O         1.270160         0.009502         0.129847
 C        -0.857332         1.234384        -0.048850
 C        -1.818541         1.299725        -1.318974
 H        -4.276990         0.802475        -0.551442
 H        -2.656884        -1.567182        -3.170311
 H        -1.214461        -0.608157        -2.987294
 H        -2.799797        -2.009190        -0.620045
 H        -0.862264        -1.801589         0.869198
 H         0.099157        -2.007377        -0.586495
 H        -1.611747         1.300753         0.659295
 H        -0.171612         2.111751         0.013626
 H        -2.495781         2.188340        -1.116885
 H        -1.170413         1.605113        -2.204583
