19
Iteration:   721charge 0 multiplicity 1
 O        -3.809001         0.400825        -0.777102
 C        -2.632347         0.021744        -1.333796
 C        -2.532442        -1.169108        -2.502233
 C        -1.945755        -1.366545        -1.143350
 C        -0.454940        -1.237136        -0.817935
 C        -0.082982         0.033050         0.051107
 O         0.687972        -0.067361         1.023879
 C        -0.683915         1.408727        -0.507430
 C        -1.619230         1.200531        -1.720028
 H        -3.805470         0.824042         0.184453
 H        -3.481456        -1.653312        -2.679729
 H        -1.746710        -1.117961        -3.315775
 H        -2.445344        -2.097360        -0.472907
 H        -0.058389        -2.092146        -0.175814
 H         0.279939        -1.407290        -1.622039
 H        -1.178933         1.886662         0.381953
 H         0.292810         1.889207        -0.809206
 H        -2.112081         2.161825        -1.950657
 H        -0.970537         0.858086        -2.556846
