19
Iteration:  1708charge 0 multiplicity 1
 O        -3.858130         0.464448        -1.357248
 C        -2.587362         0.056091        -1.462594
 C        -2.058722        -1.039271        -2.382086
 C        -2.111095        -1.273014        -0.789704
 C        -0.825439        -1.403051        -0.123176
 C        -0.060121        -0.016970        -0.013426
 O         1.166840         0.053811        -0.081694
 C        -0.986707         1.208110         0.127626
 C        -1.698352         1.205638        -1.301324
 H        -4.388070        -0.008060        -2.037554
 H        -2.787225        -1.618253        -2.826646
 H        -1.019207        -0.919463        -2.740123
 H        -2.979787        -1.872153        -0.536218
 H        -0.790949        -1.895593         0.812436
 H        -0.175704        -2.030601        -0.753594
 H        -1.617897         0.923983         0.988898
 H        -0.413825         2.202947         0.183961
 H        -2.455136         2.030779        -1.477175
 H        -0.937086         1.336722        -2.050012
