19
Iteration:  2237charge 0 multiplicity 1
 O        -4.034304         0.377809        -1.499625
 C        -2.609128         0.045305        -1.397196
 C        -2.023093        -0.996945        -2.362780
 C        -2.126850        -1.298536        -0.787829
 C        -0.796362        -1.408665        -0.005365
 C         0.026553        -0.075534        -0.065842
 O         1.256981         0.058172        -0.077941
 C        -0.854698         1.170330        -0.000905
 C        -1.836599         1.357907        -1.195637
 H        -4.419835         0.196415        -2.362976
 H        -2.679909        -1.527792        -2.972966
 H        -0.925382        -0.878991        -2.615244
 H        -2.788517        -1.994102        -0.300688
 H        -1.180104        -1.492801         1.021891
 H        -0.175125        -2.262296        -0.330380
 H        -1.446956         1.235101         0.880827
 H        -0.095326         1.970107        -0.065748
 H        -2.558900         2.025478        -0.924255
 H        -1.211634         1.513999        -2.104783
