19
Iteration:  3307
 O        -3.979705         0.237441        -1.638997
 C        -2.606428         0.051040        -1.459749
 C        -2.160457        -1.042126        -2.376963
 C        -2.099367        -1.242155        -0.836167
 C        -0.745753        -1.297088        -0.038565
 C         0.039220         0.007355        -0.007519
 O         1.250811        -0.055946        -0.180085
 C        -0.870160         1.251227         0.180854
 C        -1.806417         1.320467        -1.109956
 H        -4.350057         0.508653        -0.725510
 H        -2.711564        -1.742710        -2.966400
 H        -1.255221        -0.785076        -2.967894
 H        -2.957063        -1.826291        -0.398286
 H        -0.875879        -1.468961         1.039280
 H        -0.098754        -2.060380        -0.468599
 H        -1.327092         1.275750         1.213738
 H        -0.195554         2.081237         0.061925
 H        -2.765405         1.950750        -0.798032
 H        -1.366043         1.854780        -1.926694
