19
Iteration:    26charge 0 multiplicity 1
 O        -3.969156         0.141822        -1.512751
 C        -2.543558         0.018674        -1.448920
 C        -2.165784        -1.032198        -2.456731
 C        -2.096858        -1.318665        -0.918973
 C        -0.983403        -1.198457         0.104304
 C        -0.045119         0.000053         0.019713
 O         1.209197        -0.091788        -0.105234
 C        -0.654400         1.409351        -0.018040
 C        -1.741753         1.366408        -1.147596
 H        -4.308537        -0.235438        -0.753989
 H        -3.025418        -1.442976        -3.029930
 H        -1.119529        -0.848495        -3.016432
 H        -2.879555        -2.007246        -0.484084
 H        -1.453391        -1.213350         1.089598
 H        -0.324556        -2.121292         0.088992
 H        -1.057580         1.661352         0.973181
 H         0.130394         2.099262        -0.323166
 H        -2.514095         2.115946        -0.983691
 H        -1.077552         1.525844        -2.089216
