19
Iteration:   898charge 0 multiplicity 1
 O        -3.734459         0.409329        -0.800782
 C        -2.523374         0.021467        -1.470847
 C        -2.549876        -1.139737        -2.509490
 C        -1.928751        -1.297215        -1.011395
 C        -0.413289        -1.337777        -0.746165
 C        -0.107537        -0.072459        -0.065256
 O         0.578558         0.044296         0.945753
 C        -0.677125         1.303499        -0.434719
 C        -1.669493         1.237422        -1.607853
 H        -3.601536         0.280395         0.215257
 H        -3.477193        -1.519679        -2.764262
 H        -1.720098        -1.228845        -3.234087
 H        -2.487222        -1.940315        -0.371778
 H        -0.126191        -2.134995        -0.087822
 H        -0.000871        -1.317404        -1.778329
 H        -1.032561         1.943438         0.388172
 H         0.075500         1.942435        -0.992244
 H        -2.168688         2.230249        -1.732364
 H        -1.112872         1.187104        -2.567630
