19
Iteration:  3731
 O        -3.831426         0.350166        -0.876004
 C        -2.616055         0.023725        -1.454932
 C        -2.587419        -1.164618        -2.409656
 C        -1.841872        -1.297899        -1.049794
 C        -0.374156        -1.178924        -0.850978
 C         0.021207         0.007996        -0.059412
 O         0.684107        -0.017460         1.021005
 C        -0.716481         1.266817        -0.372109
 C        -1.753627         1.221167        -1.647886
 H        -3.589763         0.800451        -0.104087
 H        -3.462049        -1.893630        -2.542906
 H        -2.076751        -0.994307        -3.310292
 H        -2.336738        -2.032590        -0.371572
 H         0.171924        -2.053791        -0.410743
 H        -0.000044        -1.199183        -1.885331
 H        -0.993907         1.665793         0.644960
 H         0.195216         1.793410        -0.719263
 H        -2.490130         1.914286        -1.595810
 H        -1.218095         1.418247        -2.641952
