19
Iteration:  1936charge 0 multiplicity 1
 O        -4.026547         0.259146        -1.411628
 C        -2.632390         0.065537        -1.450629
 C        -2.223835        -1.049837        -2.394167
 C        -2.156277        -1.295068        -0.834867
 C        -0.785295        -1.204391        -0.162100
 C         0.083555        -0.005088         0.012794
 O         1.294744        -0.026465         0.088759
 C        -0.865894         1.218452         0.065464
 C        -1.671554         1.283956        -1.336732
 H        -4.147436         0.860322        -2.188881
 H        -3.110959        -1.623951        -2.851906
 H        -1.421376        -0.967594        -3.076658
 H        -2.990974        -1.959374        -0.550642
 H        -0.786367        -1.666178         0.850389
 H        -0.111877        -1.896505        -0.713746
 H        -1.607706         1.003780         0.904343
 H        -0.431132         2.196632         0.455046
 H        -2.267001         2.057480        -1.085869
 H        -0.953881         1.389592        -2.167011
