19
Iteration:  1513charge 0 multiplicity 1
 O        -4.019177         0.284170        -1.655040
 C        -2.623551         0.084959        -1.365967
 C        -1.899359        -0.853258        -2.275577
 C        -2.103482        -1.284697        -0.837588
 C        -0.873573        -1.296542        -0.034006
 C        -0.019723        -0.165483        -0.163610
 O         1.187091        -0.092759         0.005614
 C        -0.747289         1.176913        -0.171238
 C        -1.902944         1.379969        -1.042615
 H        -4.518505         0.349709        -0.684348
 H        -2.510839        -1.566660        -2.876872
 H        -0.891759        -0.588323        -2.466353
 H        -2.752036        -2.170485        -0.616473
 H        -0.834126        -1.506187         1.106835
 H        -0.281014        -2.204658        -0.335774
 H        -0.788694         1.372640         0.963940
 H        -0.053502         2.028432        -0.422710
 H        -2.781565         1.930740        -0.519839
 H        -1.799225         2.066870        -1.887811
