19
Iteration:  3770
 O        -3.903490         0.186030        -0.870932
 C        -2.593702        -0.005883        -1.378322
 C        -2.564736        -1.106119        -2.287794
 C        -1.908871        -1.289124        -1.007382
 C        -0.357928        -1.101757        -0.914354
 C        -0.041257         0.045689        -0.056808
 O         0.571930        -0.149925         1.020395
 C        -0.563882         1.410793        -0.483494
 C        -1.613218         1.262827        -1.709122
 H        -3.959892         0.187173         0.120230
 H        -3.508622        -1.678994        -2.259294
 H        -1.982661        -0.884414        -3.190653
 H        -2.501134        -2.048246        -0.539189
 H         0.075736        -1.949315        -0.474140
 H         0.123619        -0.865759        -1.901277
 H        -0.883092         1.982139         0.378071
 H         0.360598         1.954215        -0.801123
 H        -2.299779         2.244899        -1.875703
 H        -0.979449         1.155490        -2.553992
