19
Iteration:   250charge 0 multiplicity 1
 O        -3.979625         0.390735        -1.561276
 C        -2.594785        -0.044165        -1.352784
 C        -1.896776        -0.954577        -2.312138
 C        -2.006332        -1.345775        -0.892060
 C        -0.938755        -1.279467         0.251101
 C        -0.051854        -0.024053        -0.019131
 O         1.131682        -0.111220        -0.273340
 C        -0.769970         1.273441        -0.105271
 C        -1.848355         1.327850        -1.156071
 H        -4.547017        -0.047186        -0.835395
 H        -2.597165        -1.503778        -2.967346
 H        -0.958423        -0.805970        -2.751550
 H        -2.675159        -2.196713        -0.631704
 H        -1.422204        -1.154719         1.239995
 H        -0.393619        -2.204314         0.239013
 H        -1.199326         1.457831         0.925431
 H        -0.075956         2.062315        -0.382619
 H        -2.423073         2.220642        -1.126830
 H        -1.419424         1.541312        -2.134230
