19
Iteration:  3908charge 0 multiplicity 1
 O        -3.793495         0.389970        -0.803447
 C        -2.575610        -0.046562        -1.461269
 C        -2.608886        -1.271852        -2.419476
 C        -1.868484        -1.268160        -1.112455
 C        -0.291485        -1.178006        -0.887184
 C        -0.057386         0.029943        -0.048434
 O         0.614981        -0.041776         1.044523
 C        -0.654159         1.298077        -0.448754
 C        -1.743740         1.302381        -1.593806
 H        -3.831001         0.013167         0.101737
 H        -3.681651        -1.629863        -2.714842
 H        -2.039711        -1.245552        -3.329632
 H        -2.257389        -1.852943        -0.291641
 H         0.069649        -2.133851        -0.420003
 H         0.190458        -0.987136        -1.893119
 H        -1.116535         1.760361         0.452544
 H         0.172274         1.975071        -0.678333
 H        -2.411241         2.062223        -1.563359
 H        -1.218116         1.359617        -2.616667
