19
Iteration:  2037charge 0 multiplicity 1
 O        -3.984722         0.275753        -1.297060
 C        -2.591802         0.061624        -1.465768
 C        -2.176881        -0.966711        -2.429395
 C        -2.123524        -1.304297        -0.959893
 C        -0.811112        -1.399631        -0.003019
 C         0.002411        -0.037462         0.051540
 O         1.251608         0.091567        -0.011291
 C        -0.902493         1.226671         0.033963
 C        -1.676135         1.218711        -1.345796
 H        -4.255984         0.834005        -1.951841
 H        -2.866287        -1.455174        -3.041339
 H        -1.174000        -0.842562        -2.959892
 H        -2.999602        -1.865414        -0.607181
 H        -1.255996        -1.607190         0.989978
 H        -0.154227        -2.177738        -0.414450
 H        -1.739843         1.335704         0.879307
 H        -0.217960         2.086316         0.123909
 H        -2.046418         2.168111        -1.427534
 H        -0.765757         1.338827        -2.030284
