19
Iteration:   655
 O        -3.962734         0.380154        -1.187233
 C        -2.697282        -0.004345        -1.463975
 C        -2.674296        -1.212862        -2.408333
 C        -1.980313        -1.221121        -0.962554
 C        -0.391168        -1.182242        -0.690001
 C         0.050065         0.050223         0.088301
 O         0.946288        -0.093441         0.862902
 C        -0.642984         1.283221        -0.294200
 C        -1.654406         1.204872        -1.526839
 H        -4.072365         0.572178        -0.159417
 H        -3.542891        -1.849679        -2.422963
 H        -1.966364        -1.145100        -3.301842
 H        -2.561919        -1.875221        -0.357169
 H         0.016309        -2.142145        -0.263527
 H         0.027673        -0.957604        -1.694326
 H        -1.167437         1.830958         0.519535
 H         0.125439         2.027704        -0.620928
 H        -2.185736         2.167904        -1.660049
 H        -1.096921         1.049281        -2.523135
