19
Iteration:  2816charge 0 multiplicity 1
 O        -3.990544         0.443634        -1.526304
 C        -2.604561         0.000643        -1.477052
 C        -2.208013        -1.146303        -2.406352
 C        -2.069247        -1.266124        -0.812944
 C        -0.775286        -1.382511        -0.169742
 C         0.045484         0.005387        -0.042283
 O         1.311833         0.050348         0.028452
 C        -0.881151         1.238320         0.146682
 C        -1.807614         1.274439        -1.222056
 H        -4.210611         0.643006        -0.569893
 H        -3.046320        -1.773271        -2.870728
 H        -1.326710        -1.133718        -3.010368
 H        -2.742040        -2.094983        -0.671976
 H        -0.866430        -1.883503         0.821787
 H        -0.090883        -1.930881        -0.860365
 H        -1.536391         0.910528         0.977500
 H        -0.481568         2.190892         0.433875
 H        -2.692139         1.978721        -1.229013
 H        -1.098092         1.791893        -2.056266
