19
Iteration:  2496
 O        -4.056318         0.306063        -1.203269
 C        -2.674047         0.015145        -1.470393
 C        -2.059698        -1.006026        -2.442783
 C        -2.023074        -1.316841        -0.944952
 C        -0.791556        -1.289561        -0.149116
 C         0.053292        -0.039710         0.002356
 O         1.246364        -0.075143         0.207160
 C        -0.837096         1.248294        -0.114063
 C        -1.828683         1.388779        -1.357018
 H        -4.473307         0.471247        -2.110336
 H        -2.727794        -1.718671        -3.076405
 H        -1.099845        -0.711535        -2.812283
 H        -2.866857        -1.985326        -0.574931
 H        -0.984919        -1.631401         0.877071
 H        -0.056148        -2.020698        -0.518513
 H        -1.382817         1.397543         0.834262
 H        -0.089858         2.114514        -0.225116
 H        -2.666707         2.101848        -1.219157
 H        -1.322267         1.565292        -2.309011
