19
Iteration:   971charge 0 multiplicity 1
 O        -3.899578         0.453090        -1.085458
 C        -2.572955        -0.040687        -1.415927
 C        -2.529054        -1.167487        -2.424670
 C        -2.023572        -1.329878        -0.928891
 C        -0.484595        -1.287134        -0.772164
 C        -0.062052        -0.003203        -0.009133
 O         0.903616         0.033542         0.798665
 C        -0.775315         1.288137        -0.246847
 C        -1.578576         1.185762        -1.544188
 H        -3.949563         1.131219        -0.275689
 H        -3.466190        -1.597198        -2.666818
 H        -1.696242        -1.216278        -3.232581
 H        -2.543680        -1.952941        -0.202804
 H        -0.044142        -2.138549        -0.214443
 H        -0.114517        -1.105562        -1.787162
 H        -1.361159         1.391728         0.688543
 H        -0.042426         2.084785        -0.213397
 H        -2.270345         1.958225        -1.808457
 H        -0.835272         1.193436        -2.363301
