19
Iteration:  4807charge 0 multiplicity 1
 O        -4.032448         0.152006        -1.031327
 C        -2.619090         0.078407        -1.319820
 C        -2.256992        -0.697869        -2.527250
 C        -1.966809        -1.296959        -1.116128
 C        -0.522588        -1.401389        -0.640998
 C         0.036225        -0.064368        -0.058153
 O         0.698826        -0.081709         0.905774
 C        -0.374635         1.190402        -0.824582
 C        -1.922302         1.404139        -1.015957
 H        -4.143453        -0.290184        -0.158119
 H        -3.064957        -1.090903        -3.146174
 H        -1.325255        -0.363169        -3.107332
 H        -2.601076        -2.138903        -0.757362
 H        -0.387102        -2.089935         0.264306
 H         0.153600        -1.760092        -1.499044
 H        -0.008104         2.165414        -0.398746
 H         0.119266         1.181186        -1.764948
 H        -2.439267         2.023509        -0.229755
 H        -2.032984         1.965930        -1.919069
