19
Iteration:  3153charge 0 multiplicity 1
 O        -3.911713         0.043242        -1.756611
 C        -2.620088         0.134453        -1.303330
 C        -1.800596        -0.870466        -2.205306
 C        -2.141226        -1.159039        -0.760412
 C        -0.898620        -1.336634         0.047810
 C        -0.022216        -0.065800        -0.122769
 O         1.170829        -0.206921        -0.358559
 C        -0.721507         1.298532         0.018990
 C        -2.016436         1.426187        -0.938259
 H        -4.457140         0.616519        -1.285095
 H        -2.540302        -1.356326        -2.955546
 H        -0.848151        -0.519285        -2.462633
 H        -2.989594        -1.879279        -0.767777
 H        -1.158536        -1.370313         1.097923
 H        -0.202925        -2.140246        -0.151005
 H        -1.059971         1.285032         1.031480
 H        -0.043292         2.109077        -0.114923
 H        -2.857149         2.029480        -0.369545
 H        -1.896912         1.981752        -1.844616
