19
Iteration:  4499charge 0 multiplicity 1
 O        -4.028178        -0.025501        -1.515638
 C        -2.636323         0.095135        -1.344923
 C        -1.884701        -0.691856        -2.421897
 C        -2.130642        -1.216295        -0.912196
 C        -0.906202        -1.317536        -0.103893
 C         0.062889        -0.055014        -0.113468
 O         1.189929        -0.204114         0.158424
 C        -0.595645         1.384171        -0.497434
 C        -2.065311         1.344612        -0.734686
 H        -4.370989         0.481850        -0.820708
 H        -2.579370        -1.229657        -3.197758
 H        -0.792900        -0.449080        -2.561871
 H        -2.718810        -2.134513        -0.889766
 H        -1.072712        -1.457674         0.942934
 H        -0.326107        -2.117556        -0.469455
 H        -0.320976         2.144162         0.190369
 H        -0.038372         1.625744        -1.480695
 H        -2.665056         1.450676         0.213496
 H        -2.394784         2.107017        -1.469545
