19
Iteration:  2915
 O        -3.991566         0.249807        -1.504955
 C        -2.595149         0.046054        -1.329408
 C        -2.093644        -0.890819        -2.434282
 C        -2.030332        -1.342572        -0.953123
 C        -0.883693        -1.360507         0.008170
 C        -0.016230        -0.064381        -0.018274
 O         1.232518         0.060583        -0.122015
 C        -0.814031         1.178093         0.040537
 C        -1.801346         1.334436        -1.204996
 H        -4.386682         0.340367        -0.561276
 H        -2.710292        -1.223432        -3.141191
 H        -1.002558        -0.827105        -2.701951
 H        -2.788958        -2.002201        -0.525951
 H        -1.345261        -1.446191         1.035101
 H        -0.316721        -2.317026        -0.068575
 H        -1.424386         1.196102         0.995452
 H        -0.022794         1.860940         0.007777
 H        -2.461373         2.181321        -1.012191
 H        -1.142953         1.747508        -2.113821
