19
Iteration:  3700
 O        -3.875220         0.269986        -0.869832
 C        -2.611145         0.057689        -1.459940
 C        -2.564847        -1.053844        -2.390340
 C        -1.907286        -1.334173        -1.065363
 C        -0.411158        -1.218041        -0.831295
 C        -0.043175         0.057308         0.017570
 O         0.790127        -0.034217         0.882530
 C        -0.821366         1.355277        -0.294590
 C        -1.562171         1.142341        -1.691596
 H        -3.787679         0.595667         0.112890
 H        -3.549182        -1.558112        -2.579353
 H        -1.885409        -0.938514        -3.177862
 H        -2.363677        -2.022721        -0.332755
 H        -0.092781        -2.043624        -0.106673
 H         0.114195        -1.356250        -1.757085
 H        -1.430228         1.786768         0.546088
 H        -0.044334         2.153439        -0.458285
 H        -2.237292         1.948082        -2.022193
 H        -0.883193         0.863922        -2.601383
