19
Iteration:  3933
 O        -3.884231         0.250022        -0.873977
 C        -2.599073         0.016598        -1.449780
 C        -2.507682        -1.105580        -2.348873
 C        -1.928751        -1.241530        -1.054192
 C        -0.395724        -1.213811        -0.834375
 C         0.010252         0.044881        -0.027860
 O         0.689008        -0.108998         0.956276
 C        -0.680113         1.403361        -0.440691
 C        -1.653580         1.241387        -1.619006
 H        -3.910512        -0.225927         0.045603
 H        -3.522778        -1.570599        -2.556982
 H        -1.909693        -1.184595        -3.289160
 H        -2.428359        -1.903427        -0.310226
 H        -0.072817        -2.026828        -0.231319
 H         0.137682        -1.197520        -1.816681
 H        -1.188678         1.969664         0.368539
 H         0.171941         2.099802        -0.820905
 H        -2.465124         2.039715        -1.567945
 H        -1.206878         1.278953        -2.596626
