19
Iteration:  1970charge 0 multiplicity 1
 O        -3.940116         0.360065        -1.305901
 C        -2.568863         0.035672        -1.471786
 C        -2.105877        -1.069346        -2.398192
 C        -2.114225        -1.265488        -0.879286
 C        -0.835886        -1.425179        -0.094670
 C        -0.046735        -0.040762         0.002712
 O         1.149967         0.144911        -0.021452
 C        -0.938039         1.167352         0.077866
 C        -1.613604         1.254172        -1.316872
 H        -4.162664         1.190903        -1.909377
 H        -2.875859        -1.778123        -2.781223
 H        -1.270448        -0.847354        -3.038822
 H        -2.877472        -1.969116        -0.560403
 H        -0.879394        -1.771442         0.951437
 H        -0.160045        -2.055507        -0.692866
 H        -1.653304         1.142708         0.969634
 H        -0.190351         2.003782         0.118853
 H        -2.076607         2.145457        -1.430085
 H        -1.095587         1.266374        -2.219321
