19
Iteration:  2025
 O        -3.977874         0.271998        -1.213489
 C        -2.562101         0.091448        -1.532381
 C        -2.161057        -1.061081        -2.492510
 C        -2.034904        -1.233905        -0.950828
 C        -0.832546        -1.332681        -0.044159
 C        -0.059378        -0.014040         0.138684
 O         1.134540         0.060268        -0.065785
 C        -0.891997         1.158181         0.056964
 C        -1.555959         1.287821        -1.332105
 H        -4.457022         0.751679        -2.002260
 H        -2.888684        -1.671037        -2.926058
 H        -1.193402        -0.901857        -3.075233
 H        -2.910317        -1.714509        -0.518295
 H        -1.172870        -1.653792         0.953906
 H        -0.095876        -2.123710        -0.254700
 H        -1.797330         1.122247         0.807861
 H        -0.277241         2.075068         0.197526
 H        -2.178757         2.131982        -1.321524
 H        -0.918907         1.201344        -2.309699
