19
Iteration:  1400charge 0 multiplicity 1
 O        -4.004286         0.146760        -1.752257
 C        -2.624723         0.150969        -1.371340
 C        -1.821173        -0.795358        -2.219475
 C        -2.093699        -1.265459        -0.799802
 C        -0.869896        -1.295429         0.143456
 C        -0.069189        -0.111214        -0.062041
 O         1.106329        -0.217386        -0.281271
 C        -0.641210         1.205484        -0.032150
 C        -1.962157         1.436480        -1.028909
 H        -4.450146         0.208733        -0.981345
 H        -2.398628        -1.222884        -3.008061
 H        -0.765300        -0.537685        -2.541174
 H        -2.892881        -1.964598        -0.754631
 H        -1.158444        -1.265836         1.261250
 H        -0.183263        -2.127937        -0.137329
 H        -1.001523         1.160762         1.053526
 H         0.004572         2.076520        -0.301833
 H        -2.693472         2.115964        -0.490342
 H        -1.673686         2.048898        -1.942882
