19
Iteration:  2120charge 0 multiplicity 1
 O        -4.093001         0.183219        -1.404098
 C        -2.675997         0.044214        -1.426206
 C        -2.090689        -0.950362        -2.342823
 C        -2.140515        -1.287047        -0.863204
 C        -0.734459        -1.272952        -0.185684
 C         0.016576        -0.029221        -0.117065
 O         1.189569        -0.087770         0.242689
 C        -0.673238         1.257032        -0.203493
 C        -1.823259         1.390238        -1.185353
 H        -4.203885         0.187132        -2.373069
 H        -2.886248        -1.340369        -2.880600
 H        -1.087315        -0.628450        -2.768504
 H        -2.882921        -1.956438        -0.469439
 H        -0.861786        -1.424495         0.905473
 H        -0.049730        -2.107160        -0.442845
 H        -1.059871         1.327641         0.796522
 H         0.139980         2.010235        -0.350443
 H        -2.390324         2.254565        -0.650002
 H        -1.372676         1.601413        -2.090616
