19
Iteration:  4996
 O        -4.058223         0.171868        -1.340434
 C        -2.612762         0.021438        -1.314063
 C        -2.073476        -0.737343        -2.540694
 C        -2.062415        -1.337578        -1.063158
 C        -0.790723        -1.339214        -0.309122
 C         0.017982        -0.023067        -0.097833
 O         1.170015        -0.115685         0.440219
 C        -0.532903         1.291985        -0.521785
 C        -2.017328         1.256186        -0.784983
 H        -4.397015         1.025265        -1.333783
 H        -2.697933        -1.304701        -3.124266
 H        -1.195605        -0.524568        -3.186356
 H        -2.824599        -2.016088        -0.730523
 H        -0.915097        -1.724176         0.652608
 H        -0.123923        -1.951797        -0.855723
 H        -0.398765         2.159663         0.233343
 H        -0.009509         1.545640        -1.363576
 H        -2.676281         1.373564         0.214595
 H        -2.252978         2.196847        -1.307948
