19
Iteration:  3290
 O        -4.025988         0.284830        -1.600848
 C        -2.609976         0.027529        -1.407981
 C        -1.949337        -1.011272        -2.308964
 C        -2.091567        -1.307721        -0.827338
 C        -0.844141        -1.275760        -0.030821
 C         0.003529        -0.056560        -0.106117
 O         1.198712         0.024829        -0.203593
 C        -0.801780         1.191713         0.046004
 C        -1.839529         1.316244        -1.037000
 H        -4.482032         0.762549        -0.812423
 H        -2.809608        -1.333707        -2.993531
 H        -0.949144        -0.953549        -2.641987
 H        -2.771934        -2.106184        -0.627436
 H        -1.140142        -1.324713         1.050549
 H        -0.136743        -2.104385        -0.261568
 H        -1.424330         0.910459         0.895627
 H        -0.300841         2.140844         0.364486
 H        -2.413937         2.179296        -0.855167
 H        -1.301214         1.543491        -1.999628
