19
Iteration:  2122charge 0 multiplicity 1
 O        -4.097902         0.196499        -1.391274
 C        -2.694841         0.037535        -1.410279
 C        -2.064799        -0.948331        -2.361436
 C        -2.136710        -1.291716        -0.861804
 C        -0.741072        -1.272081        -0.181658
 C         0.036743        -0.030632        -0.119989
 O         1.182188        -0.094558         0.243101
 C        -0.677613         1.272382        -0.201706
 C        -1.822196         1.385494        -1.184751
 H        -4.198066         0.220835        -2.441772
 H        -2.857442        -1.374868        -2.890949
 H        -1.091165        -0.631924        -2.778158
 H        -2.915092        -1.975933        -0.505239
 H        -0.851110        -1.431371         0.890455
 H        -0.037802        -2.085746        -0.398081
 H        -1.019665         1.330789         0.776797
 H         0.109202         2.015385        -0.330950
 H        -2.414218         2.186672        -0.701019
 H        -1.435791         1.558261        -2.180947
