19
Iteration:   728
 O        -3.828347         0.401974        -0.775429
 C        -2.620427        -0.010171        -1.404350
 C        -2.650046        -1.170695        -2.522069
 C        -1.926271        -1.371568        -1.179904
 C        -0.437513        -1.221471        -0.795002
 C        -0.071124        -0.064129         0.091698
 O         0.689347        -0.008676         1.061050
 C        -0.633093         1.449225        -0.488192
 C        -1.577253         1.150205        -1.693983
 H        -3.574483         0.700631         0.230455
 H        -3.560736        -1.731219        -2.644408
 H        -1.996918        -0.874801        -3.405442
 H        -2.391613        -2.065006        -0.530778
 H        -0.010168        -2.015196        -0.200704
 H         0.159410        -1.127603        -1.737545
 H        -1.082653         2.031503         0.344021
 H         0.204397         2.025508        -0.861883
 H        -2.143709         1.990088        -2.055621
 H        -0.972009         0.915597        -2.555093
