19
Iteration:  4111
 O        -3.983488         0.227091        -1.139685
 C        -2.623004         0.023974        -1.504256
 C        -2.310534        -1.015550        -2.434505
 C        -2.072739        -1.272313        -0.931419
 C        -0.630739        -1.358169        -0.475894
 C         0.035711        -0.034041         0.004731
 O         1.118720         0.057144         0.433533
 C        -0.851632         1.238874        -0.163473
 C        -1.673536         1.329294        -1.433847
 H        -4.122133         0.416304        -0.123647
 H        -3.074808        -1.577294        -3.057957
 H        -1.512875        -0.525400        -2.844983
 H        -2.872699        -1.738779        -0.353485
 H        -0.382547        -1.967008         0.438453
 H         0.114493        -1.735214        -1.199152
 H        -1.629682         1.213937         0.660334
 H        -0.165661         2.104931         0.105880
 H        -2.397909         2.240454        -1.520649
 H        -1.166379         1.353325        -2.328347
