19
Iteration:  2917charge 0 multiplicity 1
 O        -4.004580         0.241692        -1.510348
 C        -2.604278         0.033771        -1.336979
 C        -2.081545        -0.873669        -2.433337
 C        -2.050261        -1.339837        -0.948656
 C        -0.871901        -1.360919         0.008807
 C         0.001053        -0.064723        -0.016111
 O         1.229097         0.052233        -0.119425
 C        -0.796339         1.183214         0.053902
 C        -1.805021         1.341083        -1.209905
 H        -4.437207         0.319164        -0.573082
 H        -2.740810        -1.237124        -3.207728
 H        -1.009825        -0.811160        -2.656968
 H        -2.890704        -1.956513        -0.527541
 H        -1.247380        -1.405848         1.034998
 H        -0.271895        -2.292920        -0.040505
 H        -1.411364         1.186893         0.935031
 H        -0.009265         1.879216         0.028900
 H        -2.477349         2.160805        -1.010463
 H        -1.156703         1.707308        -2.133157
