19
Iteration:  4717
 O        -4.106950         0.107978        -0.979981
 C        -2.642160         0.076428        -1.244639
 C        -2.089726        -0.706690        -2.526961
 C        -1.949944        -1.248983        -1.123558
 C        -0.580479        -1.420194        -0.620824
 C        -0.007559        -0.072260        -0.114360
 O         0.694281         0.079337         0.864182
 C        -0.345172         1.073042        -0.970688
 C        -1.932677         1.353424        -0.818053
 H        -4.500257         0.397744        -1.897635
 H        -2.808526        -1.018685        -3.336452
 H        -1.034739        -0.371931        -3.001183
 H        -2.616908        -2.010584        -0.792250
 H        -0.536949        -2.113055         0.303858
 H         0.160144        -1.930569        -1.318837
 H         0.318299         1.788997        -0.653333
 H        -0.060596         0.950815        -1.987909
 H        -2.082865         1.748622         0.208958
 H        -2.247284         2.181957        -1.394913
