19
Iteration:  3569
 O        -3.960628         0.299296        -1.164194
 C        -2.622859         0.017205        -1.445360
 C        -2.451643        -1.121959        -2.457562
 C        -1.982496        -1.311617        -1.053672
 C        -0.566504        -1.329908        -0.500898
 C         0.045252         0.078353        -0.052835
 O         1.081617         0.012270         0.548414
 C        -0.844438         1.329186        -0.089550
 C        -1.723211         1.290112        -1.411575
 H        -4.046221         0.838989        -0.329423
 H        -3.209552        -1.722317        -2.804418
 H        -1.692308        -1.139682        -3.262072
 H        -2.526783        -1.935546        -0.370023
 H        -0.426874        -2.028115         0.418295
 H         0.134571        -1.825919        -1.200479
 H        -1.459279         1.201244         0.795375
 H        -0.155073         2.198585         0.044348
 H        -2.284682         2.224689        -1.729755
 H        -1.086449         1.071187        -2.352522
