19
Iteration:  4724charge 0 multiplicity 1
 O        -4.126071         0.123008        -0.982843
 C        -2.627640         0.074332        -1.220215
 C        -2.107449        -0.654778        -2.525255
 C        -1.961115        -1.237731        -1.140038
 C        -0.506572        -1.400584        -0.566430
 C        -0.049590        -0.133027        -0.157215
 O         0.685964         0.076260         0.879843
 C        -0.338564         1.049472        -0.961112
 C        -1.875251         1.347840        -0.830622
 H        -4.574979         0.097724        -1.903700
 H        -2.841351        -1.020655        -3.354109
 H        -1.240436        -0.234613        -2.957071
 H        -2.630610        -2.108358        -0.879342
 H        -0.481475        -2.025283         0.255017
 H         0.245410        -1.797069        -1.201925
 H         0.273241         1.990234        -0.711115
 H        -0.203910         0.828118        -2.070304
 H        -2.143499         1.702794         0.182433
 H        -2.348145         2.110811        -1.649563
