19
Iteration:  4888
 O        -4.039657         0.181576        -1.068984
 C        -2.637945         0.039725        -1.333861
 C        -2.203745        -0.699093        -2.615804
 C        -2.013221        -1.318073        -1.160392
 C        -0.592581        -1.402002        -0.436665
 C         0.084325        -0.100325        -0.130117
 O         0.785839         0.020461         0.790710
 C        -0.386052         1.205750        -0.827552
 C        -1.950805         1.260584        -0.816105
 H        -4.346446         1.037251        -1.335629
 H        -3.028408        -1.013037        -3.152028
 H        -1.274028        -0.440679        -3.128327
 H        -2.622949        -2.152892        -0.915754
 H        -0.533603        -2.001386         0.451870
 H         0.202186        -1.945205        -1.174434
 H         0.144552         2.125941        -0.322542
 H        -0.037063         1.282692        -1.921897
 H        -2.270648         1.133203         0.204954
 H        -2.349895         2.176426        -1.171657
