19
Iteration:  3430charge 0 multiplicity 1
 O        -4.023344         0.249629        -1.223633
 C        -2.592438         0.038322        -1.444051
 C        -2.221932        -0.938567        -2.482847
 C        -2.122537        -1.323395        -0.928869
 C        -0.715794        -1.327049        -0.326144
 C         0.022315         0.027833        -0.028457
 O         1.167457         0.001802         0.269293
 C        -0.823478         1.270571        -0.061470
 C        -1.684205         1.290466        -1.381536
 H        -4.179136        -0.009273        -0.360926
 H        -2.869717        -1.625265        -2.958096
 H        -1.291004        -0.956613        -3.100265
 H        -2.788499        -2.105127        -0.582414
 H        -0.873918        -1.594737         0.703631
 H        -0.009657        -2.048797        -0.793600
 H        -1.561763         1.137670         0.814234
 H        -0.319678         2.270132         0.191284
 H        -2.419714         2.218240        -1.481867
 H        -0.899913         1.516979        -2.115465
