19
Iteration:  4407
 O        -3.953770         0.008881        -1.671583
 C        -2.613212         0.102925        -1.340704
 C        -1.846372        -0.850024        -2.326730
 C        -2.059112        -1.262107        -0.851114
 C        -0.892617        -1.302994         0.095356
 C        -0.037801        -0.058372        -0.157622
 O         1.180201        -0.212340        -0.305910
 C        -0.765218         1.352442        -0.030598
 C        -2.008418         1.536718        -0.865449
 H        -4.436441         0.160002        -0.769484
 H        -2.309531        -1.233412        -3.239511
 H        -0.875800        -0.558771        -2.411414
 H        -2.949353        -1.898417        -0.744754
 H        -1.063424        -1.596095         1.128613
 H        -0.287167        -2.208350        -0.269773
 H        -0.896944         1.442228         1.050811
 H        -0.053688         2.019166        -0.358789
 H        -2.867845         1.979537        -0.214313
 H        -1.770381         2.193386        -1.633430
