19
Iteration:  2984charge 0 multiplicity 1
 O        -3.976787         0.216517        -1.634282
 C        -2.578014         0.099066        -1.329045
 C        -2.004240        -0.944921        -2.342136
 C        -2.151560        -1.329380        -0.900649
 C        -0.889031        -1.365540        -0.024431
 C         0.047488        -0.097441        -0.179801
 O         1.236634         0.052427        -0.030448
 C        -0.696351         1.224852        -0.058264
 C        -1.951164         1.358960        -0.971072
 H        -4.442242         0.539106        -0.894460
 H        -2.832759        -1.590136        -2.877410
 H        -1.077155        -0.942696        -2.846851
 H        -3.062320        -1.899689        -0.598572
 H        -1.099180        -1.602298         1.003875
 H        -0.238737        -2.162664        -0.443075
 H        -0.897625         1.280414         1.003703
 H         0.038088         2.015592        -0.302046
 H        -2.744643         2.032552        -0.615842
 H        -1.682993         1.958293        -1.941079
