19
Iteration:   677charge 0 multiplicity 1
 O        -3.995164         0.319172        -1.047533
 C        -2.489165         0.080359        -1.490858
 C        -2.570769        -1.174136        -2.301476
 C        -1.948039        -1.258393        -0.991201
 C        -0.480707        -1.294223        -0.809487
 C         0.029935        -0.078992        -0.000614
 O         0.805036         0.002603         0.941969
 C        -0.642376         1.266373        -0.409303
 C        -1.638553         1.347968        -1.581783
 H        -3.759382         0.372488        -0.080616
 H        -3.592048        -1.427340        -2.376477
 H        -1.784270        -1.313582        -3.118993
 H        -2.566527        -1.688202        -0.233816
 H        -0.204529        -2.166949        -0.142677
 H         0.021322        -1.481043        -1.782264
 H        -1.330667         1.570926         0.424796
 H         0.083204         2.105080        -0.541844
 H        -2.326036         2.213089        -1.588910
 H        -1.195826         1.280320        -2.617602
