19
Iteration:  3670charge 0 multiplicity 1
 O        -3.887560         0.332727        -0.895235
 C        -2.625608         0.035490        -1.562359
 C        -2.550100        -1.146634        -2.429698
 C        -2.003246        -1.269283        -1.099143
 C        -0.485851        -1.231759        -0.749040
 C        -0.035086         0.023984         0.075162
 O         0.932257         0.068390         0.823405
 C        -0.761789         1.268620        -0.230765
 C        -1.579464         1.141781        -1.622197
 H        -3.833721         0.129302         0.004655
 H        -3.524302        -1.584434        -2.726580
 H        -1.810608        -1.253072        -3.226112
 H        -2.517555        -1.904254        -0.363833
 H        -0.145147        -2.194241        -0.266039
 H         0.070721        -1.055828        -1.705590
 H        -1.538258         1.468295         0.520500
 H        -0.186537         2.236209        -0.224016
 H        -2.317687         2.089594        -1.672412
 H        -0.986785         1.069275        -2.537432
