19
Iteration:  3769
 O        -3.905289         0.186717        -0.866926
 C        -2.584984        -0.005845        -1.372688
 C        -2.568800        -1.116281        -2.290247
 C        -1.907031        -1.282513        -1.013706
 C        -0.364801        -1.103651        -0.910386
 C        -0.036873         0.035303        -0.057432
 O         0.572858        -0.142970         1.019512
 C        -0.564743         1.411725        -0.483454
 C        -1.621556         1.265938        -1.710144
 H        -3.980710         0.199349         0.072316
 H        -3.480476        -1.680029        -2.271357
 H        -1.975532        -0.898930        -3.214551
 H        -2.506515        -2.024094        -0.547972
 H         0.095077        -1.969463        -0.483016
 H         0.090686        -0.831283        -1.879998
 H        -0.868302         1.961600         0.412592
 H         0.397354         1.944893        -0.777484
 H        -2.295300         2.245988        -1.887140
 H        -0.955237         1.167847        -2.560726
