19
Iteration:   744charge 0 multiplicity 1
 O        -3.758561         0.348049        -0.802982
 C        -2.605854        -0.025259        -1.506470
 C        -2.755678        -1.044005        -2.513473
 C        -1.892787        -1.291020        -1.125795
 C        -0.399263        -1.218002        -0.799662
 C        -0.062427         0.133600         0.091286
 O         0.641659         0.017174         1.093439
 C        -0.613162         1.271989        -0.484720
 C        -1.584735         1.034526        -1.672286
 H        -3.523890         0.430399         0.135258
 H        -3.706762        -1.610265        -2.277004
 H        -2.424278        -1.002869        -3.517382
 H        -2.561163        -1.950321        -0.490351
 H         0.048674        -2.241425        -0.632400
 H         0.218507        -0.974553        -1.684092
 H        -1.116468         1.785386         0.354878
 H         0.315056         1.834942        -0.810497
 H        -2.062008         2.048216        -1.800834
 H        -0.928625         0.778882        -2.541169
