19
Iteration:   964charge 0 multiplicity 1
 O        -3.903901         0.419782        -1.074930
 C        -2.588828        -0.012808        -1.408651
 C        -2.551277        -1.157161        -2.430325
 C        -2.016232        -1.284718        -0.947846
 C        -0.495323        -1.276944        -0.819144
 C        -0.009141         0.040678         0.037697
 O         0.874532         0.021077         0.812506
 C        -0.797652         1.317699        -0.286772
 C        -1.554673         1.122471        -1.495766
 H        -3.693214         0.932312        -0.192788
 H        -3.498145        -1.683652        -2.596618
 H        -1.714215        -1.043591        -3.006871
 H        -2.589571        -1.979411        -0.364341
 H        -0.215962        -2.233723        -0.404431
 H         0.172993        -1.208246        -1.720051
 H        -1.487130         1.631832         0.526779
 H         0.127495         1.962630        -0.293747
 H        -2.105857         1.997953        -1.939155
 H        -0.944490         0.863555        -2.364624
