19
Iteration:  1027charge 0 multiplicity 1
 O        -3.976466         0.331811        -1.231819
 C        -2.677650         0.103864        -1.552811
 C        -2.471485        -1.098465        -2.371964
 C        -2.088352        -1.253528        -0.940559
 C        -0.631169        -1.261453        -0.572514
 C         0.015548         0.023246         0.050130
 O         1.122272         0.016201         0.615088
 C        -0.799521         1.224556        -0.148950
 C        -1.542085         1.193479        -1.468172
 H        -4.160919         0.498434        -0.214233
 H        -3.385405        -1.639667        -2.726829
 H        -1.720683        -1.260978        -3.136373
 H        -2.687578        -1.826746        -0.258905
 H        -0.300315        -2.077462         0.124070
 H         0.000811        -1.546020        -1.477705
 H        -1.462183         1.111326         0.748687
 H        -0.218192         2.154777         0.008590
 H        -1.961257         2.136581        -1.782061
 H        -0.669176         0.988764        -2.139612
