19
Iteration:  4018charge 0 multiplicity 1
 O        -3.928135         0.305877        -1.006513
 C        -2.549618         0.061372        -1.457707
 C        -2.471434        -1.165249        -2.399587
 C        -2.002853        -1.308429        -1.013280
 C        -0.458922        -1.223160        -0.764490
 C        -0.028114        -0.003462         0.020389
 O         0.963684         0.050075         0.714442
 C        -0.882581         1.257096        -0.240272
 C        -1.650044         1.249406        -1.536584
 H        -3.801758         0.698123        -0.168739
 H        -3.519374        -1.547916        -2.469347
 H        -1.712069        -1.179740        -3.272615
 H        -2.502400        -1.754259        -0.143689
 H        -0.296559        -2.125719        -0.155510
 H         0.163602        -1.581554        -1.622428
 H        -1.701386         1.269349         0.477447
 H        -0.240208         2.061026         0.031087
 H        -2.123017         2.154616        -1.678427
 H        -0.882646         1.183156        -2.397753
