19
Iteration:   245charge 0 multiplicity 1
 O        -3.991828         0.392946        -1.546020
 C        -2.585480        -0.009075        -1.348787
 C        -1.886733        -0.959890        -2.364776
 C        -1.995894        -1.366491        -0.863293
 C        -0.973311        -1.265869         0.257673
 C        -0.045425        -0.071101        -0.027495
 O         1.147776        -0.088298        -0.275468
 C        -0.757350         1.277824        -0.067096
 C        -1.838591         1.301694        -1.195085
 H        -4.447185        -0.017720        -0.844100
 H        -2.626525        -1.525778        -2.909590
 H        -0.932591        -0.767602        -2.985675
 H        -2.735008        -2.120580        -0.659918
 H        -1.515606        -1.043309         1.192061
 H        -0.365357        -2.208410         0.444914
 H        -1.231884         1.474747         0.870743
 H        -0.053971         2.095814        -0.319345
 H        -2.659167         2.085487        -0.911000
 H        -1.492363         1.547910        -2.243547
