19
Iteration:  1437
 O        -4.002150         0.219117        -1.573505
 C        -2.597477         0.047781        -1.456434
 C        -1.828810        -0.870381        -2.367734
 C        -2.081289        -1.299114        -0.938392
 C        -0.991983        -1.252328         0.095342
 C        -0.008533        -0.060960        -0.040758
 O         1.204567        -0.197097        -0.197858
 C        -0.670364         1.238471        -0.021164
 C        -2.001902         1.367679        -1.026317
 H        -4.332032         0.597328        -0.820067
 H        -2.496165        -1.395248        -3.108677
 H        -0.824735        -0.647796        -2.619400
 H        -2.837522        -2.109178        -0.748386
 H        -1.407285        -1.062151         1.131109
 H        -0.256169        -2.037822         0.311471
 H        -1.023348         1.589184         1.012304
 H         0.080413         2.019567        -0.227963
 H        -2.774716         1.943745        -0.417539
 H        -1.763001         1.962662        -1.927089
