19
Iteration:  4662charge 0 multiplicity 1
 O        -4.091766         0.149655        -1.176336
 C        -2.695767         0.068882        -1.391819
 C        -2.272192        -0.829150        -2.561363
 C        -1.961363        -1.342672        -1.166140
 C        -0.623943        -1.349093        -0.486560
 C         0.053633        -0.037685        -0.041695
 O         0.975033        -0.005202         0.844796
 C        -0.404851         1.283368        -0.761438
 C        -1.935152         1.300785        -0.907739
 H        -4.264822         0.781813        -0.364051
 H        -3.235478        -1.382717        -3.048850
 H        -1.439801        -0.399397        -3.221461
 H        -2.600745        -2.222285        -1.032549
 H        -0.828353        -1.795003         0.580569
 H         0.228686        -1.864686        -1.114434
 H         0.072588         2.031011        -0.233068
 H        -0.068538         1.159994        -1.772633
 H        -2.333101         1.504751         0.121490
 H        -2.159105         2.017500        -1.579537
