19
Iteration:  3818
 O        -3.786535         0.326851        -0.719157
 C        -2.607367         0.016439        -1.500989
 C        -2.594733        -1.115949        -2.377007
 C        -1.761407        -1.361512        -1.095520
 C        -0.332609        -1.203251        -1.002341
 C        -0.090781         0.008502         0.028648
 O         0.503739         0.001104         1.076462
 C        -0.671343         1.274064        -0.557143
 C        -1.677335         1.229954        -1.642618
 H        -3.549045         0.670761         0.230073
 H        -3.514455        -1.647893        -2.426920
 H        -1.922105        -1.101134        -3.260591
 H        -2.224694        -2.108245        -0.369686
 H         0.265858        -2.026067        -0.482472
 H         0.052616        -0.965256        -2.019716
 H        -1.238649         1.749299         0.266132
 H         0.248928         1.794097        -0.561994
 H        -2.089079         2.139766        -1.409812
 H        -1.262043         1.346470        -2.670899
