19
Iteration:  4791charge 0 multiplicity 1
 O        -3.941609         0.208887        -0.924680
 C        -2.613538         0.025262        -1.329460
 C        -2.242839        -0.770550        -2.588685
 C        -1.997738        -1.249352        -1.229115
 C        -0.586757        -1.352251        -0.598022
 C        -0.015201        -0.065218         0.008291
 O         0.709290        -0.048704         0.917459
 C        -0.406093         1.247263        -0.873054
 C        -1.898837         1.309438        -1.043647
 H        -4.160082        -0.514627        -0.400138
 H        -3.025610        -1.264700        -3.195767
 H        -1.313712        -0.434235        -3.229519
 H        -2.699920        -2.013006        -0.896375
 H        -0.546894        -2.184430         0.062048
 H         0.118039        -1.664190        -1.318905
 H         0.171393         2.020240        -0.366823
 H         0.284225         1.236938        -1.821150
 H        -2.291984         1.511407        -0.005310
 H        -2.266374         2.290218        -1.625645
