19
Iteration:   190charge 0 multiplicity 1
 O        -4.006369         0.092058        -1.622324
 C        -2.640873         0.104714        -1.397020
 C        -1.992695        -0.907364        -2.236870
 C        -2.128599        -1.264691        -0.706287
 C        -0.863903        -1.301158         0.057026
 C        -0.061836        -0.044560        -0.077865
 O         1.140930        -0.212243        -0.178803
 C        -0.723643         1.378921        -0.052141
 C        -1.744552         1.464471        -1.234924
 H        -4.347996         0.162520        -0.811343
 H        -2.485649        -1.559175        -3.052165
 H        -0.945718        -0.557334        -2.503487
 H        -2.893892        -1.998499        -0.406279
 H        -1.011361        -1.457440         1.136349
 H        -0.186987        -2.152769        -0.313401
 H        -1.216582         1.476225         0.901296
 H        -0.025107         2.230910        -0.092007
 H        -2.508735         2.228946        -0.896639
 H        -1.224489         1.655710        -2.183639
