19
Iteration:  2151charge 0 multiplicity 1
 O        -4.053621         0.249012        -1.253744
 C        -2.711869         0.004255        -1.516551
 C        -1.983987        -0.936796        -2.436366
 C        -2.053565        -1.295628        -0.951229
 C        -0.842058        -1.304197        -0.035218
 C         0.039361        -0.041952         0.046449
 O         1.281188        -0.117836         0.178224
 C        -0.767126         1.283016        -0.254900
 C        -1.902413         1.317326        -1.241162
 H        -4.310359         0.916725        -2.010988
 H        -2.588858        -1.490776        -3.131854
 H        -1.043559        -0.512177        -2.982928
 H        -2.833523        -2.006928        -0.761146
 H        -1.246591        -1.495775         1.002639
 H        -0.105569        -2.132421        -0.152972
 H        -1.101048         1.622740         0.828169
 H        -0.024355         2.098072        -0.530651
 H        -2.679074         2.152857        -0.905662
 H        -1.608731         1.704604        -2.265147
