19
Iteration:  4734charge 0 multiplicity 1
 O        -4.063284         0.139562        -0.995652
 C        -2.674489         0.071156        -1.245679
 C        -2.192190        -0.548601        -2.488717
 C        -1.932571        -1.303926        -1.165256
 C        -0.497464        -1.448039        -0.506295
 C         0.039528        -0.075965        -0.101752
 O         0.654650         0.042340         0.894000
 C        -0.393409         1.093501        -1.007574
 C        -1.849905         1.314476        -0.889306
 H        -4.524248        -0.257944        -1.823724
 H        -2.940436        -1.123022        -3.073764
 H        -1.463288        -0.096405        -3.026765
 H        -2.621388        -2.190043        -1.060697
 H        -0.487582        -2.089692         0.323405
 H         0.149049        -1.748742        -1.314995
 H         0.198903         2.044614        -0.684417
 H        -0.119546         0.795164        -2.078708
 H        -2.177688         1.601842         0.111228
 H        -2.050136         2.203462        -1.638639
