19
Iteration:  1915
 O        -3.957405         0.283332        -1.344168
 C        -2.571226         0.117517        -1.481214
 C        -2.188444        -1.112142        -2.378231
 C        -2.128121        -1.232741        -0.841252
 C        -0.773570        -1.359829        -0.255226
 C         0.040005        -0.001879        -0.082922
 O         1.206390        -0.035336         0.181582
 C        -0.835710         1.258284        -0.033366
 C        -1.770887         1.343208        -1.226930
 H        -4.342401         0.308247        -2.310693
 H        -3.034272        -1.533964        -3.034154
 H        -1.225316        -1.112176        -2.828423
 H        -2.968808        -1.749607        -0.337741
 H        -0.909493        -1.680084         0.814443
 H        -0.100498        -2.097416        -0.755043
 H        -1.319242         1.275489         0.984866
 H        -0.154607         2.160223         0.105573
 H        -2.476369         2.171677        -1.043807
 H        -1.275616         1.422347        -2.194014
