19
Iteration:  3161
 O        -3.919137         0.089862        -1.755248
 C        -2.600602         0.095240        -1.362379
 C        -1.840357        -0.836716        -2.145633
 C        -2.096792        -1.205468        -0.757425
 C        -0.843325        -1.290936         0.051495
 C        -0.008937        -0.090436        -0.038758
 O         1.140215        -0.227520        -0.387407
 C        -0.774353         1.313138        -0.046650
 C        -2.024166         1.434833        -0.927438
 H        -4.394069         0.624585        -1.182247
 H        -2.351244        -1.357921        -3.081900
 H        -0.854773        -0.564118        -2.485324
 H        -2.807572        -2.006664        -0.642651
 H        -1.158556        -1.500451         1.110811
 H        -0.396055        -2.242130        -0.290466
 H        -1.294852         1.310582         0.969808
 H         0.019513         2.109420        -0.048575
 H        -2.838376         1.928070        -0.317305
 H        -1.757382         2.132318        -1.852395
