19
Iteration:   573charge 0 multiplicity 1
 O        -3.843391         0.462862        -1.055741
 C        -2.581701        -0.014375        -1.557140
 C        -2.547909        -1.249061        -2.518161
 C        -2.057701        -1.299817        -1.080660
 C        -0.646734        -1.291206        -0.395617
 C         0.008991         0.032927         0.040276
 O         1.096160         0.037469         0.577267
 C        -0.871220         1.206185        -0.121089
 C        -1.566614         1.351123        -1.585017
 H        -3.767205         0.112345        -0.087929
 H        -3.427980        -1.809867        -2.747567
 H        -1.870433        -1.191444        -3.387406
 H        -2.808670        -1.779981        -0.356796
 H        -0.742333        -2.076348         0.351068
 H         0.218519        -1.737571        -0.946293
 H        -1.739980         1.088823         0.629663
 H        -0.327667         2.152407         0.116718
 H        -2.191814         2.300828        -1.753020
 H        -0.792831         1.396624        -2.334453
