19
Iteration:  3966
 O        -3.987668         0.242446        -0.926239
 C        -2.647893         0.029934        -1.429258
 C        -2.509469        -1.037850        -2.412308
 C        -1.975096        -1.286830        -1.074156
 C        -0.429107        -1.256365        -0.758445
 C        -0.023975         0.011061        -0.009974
 O         0.846137         0.042640         0.905516
 C        -0.673618         1.347206        -0.371685
 C        -1.622344         1.131792        -1.581413
 H        -3.860987         0.473498         0.043683
 H        -3.294313        -1.770181        -2.467122
 H        -1.731239        -0.777188        -3.208609
 H        -2.503561        -2.158601        -0.609888
 H        -0.089675        -2.230668        -0.549905
 H        -0.041878        -1.054564        -1.804438
 H        -1.161718         1.792618         0.528058
 H         0.235903         2.033462        -0.635281
 H        -2.255313         2.079799        -1.603141
 H        -1.033375         1.063288        -2.472682
