19
Iteration:  2951charge 0 multiplicity 1
 O        -4.076535         0.161986        -1.597356
 C        -2.650519         0.061413        -1.410170
 C        -1.968400        -0.929140        -2.300470
 C        -2.038328        -1.140096        -0.866021
 C        -0.797161        -1.215210        -0.104482
 C         0.018504        -0.049720        -0.049261
 O         1.278377        -0.199622        -0.085650
 C        -0.778138         1.205837         0.057983
 C        -1.940892         1.421602        -1.121164
 H        -4.709335         0.150285        -0.772174
 H        -2.680108        -1.656350        -2.919076
 H        -0.990679        -0.859605        -2.640243
 H        -2.898417        -1.762769        -0.491022
 H        -0.944355        -1.499003         0.923133
 H        -0.161716        -1.961143        -0.604471
 H        -1.204851         1.266576         1.022339
 H        -0.174415         2.115343         0.063643
 H        -2.705547         2.140464        -0.804671
 H        -1.458957         1.686364        -2.139864
