19
Iteration:   218charge 0 multiplicity 1
 O        -3.973109         0.166945        -1.494472
 C        -2.610712         0.093269        -1.497396
 C        -1.934968        -1.053052        -2.433747
 C        -2.075471        -1.210844        -0.884494
 C        -1.027490        -1.111360         0.215905
 C         0.012333        -0.030023        -0.020081
 O         1.196653        -0.181797        -0.255908
 C        -0.738947         1.261519        -0.020179
 C        -1.810563         1.392473        -1.130090
 H        -4.142793        -0.143249        -0.640838
 H        -2.622856        -1.659996        -3.062941
 H        -0.927399        -1.009961        -2.784933
 H        -2.916215        -1.883949        -0.534510
 H        -1.534810        -0.984920         1.199344
 H        -0.545145        -2.076244         0.245668
 H        -1.161684         1.269610         1.042620
 H        -0.200926         2.190011        -0.186915
 H        -2.615704         2.118099        -0.818604
 H        -1.237345         1.590508        -2.031927
