19
Iteration:  4631
 O        -4.119102         0.130539        -1.224217
 C        -2.716879         0.073511        -1.311022
 C        -2.109043        -0.693742        -2.429749
 C        -1.998411        -1.212788        -1.074348
 C        -0.646878        -1.352731        -0.435490
 C         0.012599        -0.090314        -0.013242
 O         1.029571        -0.010684         0.685540
 C        -0.503583         1.127686        -0.752408
 C        -1.949433         1.353724        -1.001800
 H        -4.478912        -0.397526        -0.554288
 H        -2.820148        -1.209958        -3.155311
 H        -1.203932        -0.328834        -2.981436
 H        -2.606393        -2.091463        -0.902944
 H        -0.689162        -2.043665         0.520489
 H         0.086467        -1.892699        -1.120135
 H        -0.019968         1.863620        -0.102076
 H         0.086154         1.115545        -1.718900
 H        -2.480721         1.806722        -0.088022
 H        -2.075981         2.078081        -1.833225
