19
Iteration:   587
 O        -3.803715         0.388142        -1.046453
 C        -2.537098         0.082295        -1.657773
 C        -2.558499        -1.192383        -2.459127
 C        -2.008160        -1.201047        -1.005602
 C        -0.600707        -1.419711        -0.507821
 C        -0.012860        -0.048125         0.061527
 O         1.077362         0.066632         0.633722
 C        -0.934786         1.277845        -0.203459
 C        -1.597227         1.262264        -1.542898
 H        -3.668278         0.625663        -0.119726
 H        -3.619920        -1.697210        -2.566229
 H        -1.910812        -1.400823        -3.313043
 H        -2.802881        -1.718350        -0.442211
 H        -0.601937        -1.874858         0.495941
 H        -0.005655        -1.952634        -1.265765
 H        -1.760708         1.196562         0.578730
 H        -0.380317         2.129262         0.160159
 H        -2.246999         2.121527        -1.500096
 H        -0.945774         1.447596        -2.422611
