19
Iteration:   788
 O        -3.738145         0.453995        -0.759214
 C        -2.532885         0.034249        -1.440512
 C        -2.475239        -1.208165        -2.320283
 C        -1.887049        -1.260214        -0.980330
 C        -0.360267        -1.183593        -0.908437
 C        -0.077073        -0.016900        -0.106986
 O         0.420315        -0.159819         0.974116
 C        -0.711541         1.365083        -0.502621
 C        -1.611305         1.225859        -1.682338
 H        -3.517905         0.568154         0.116343
 H        -3.390055        -1.831786        -2.485907
 H        -1.918648        -1.284469        -3.207821
 H        -2.450768        -1.921528        -0.262355
 H         0.089419        -1.984547        -0.240801
 H         0.088301        -1.409963        -1.908429
 H        -1.349222         1.802976         0.296121
 H         0.075320         2.138442        -0.787736
 H        -2.230345         2.151716        -1.855962
 H        -1.028535         0.871168        -2.557249
