19
Iteration:  1262
 O        -3.946962         0.279584        -1.624930
 C        -2.526299         0.082477        -1.445821
 C        -1.952234        -0.970876        -2.333462
 C        -2.061410        -1.231280        -0.840010
 C        -0.912459        -1.346211         0.126625
 C        -0.026665        -0.081728         0.019547
 O         1.141497        -0.097671        -0.319047
 C        -0.769394         1.249999         0.115742
 C        -1.869587         1.359730        -1.145053
 H        -4.416581         0.102713        -0.741607
 H        -2.624364        -1.417414        -3.101380
 H        -0.997603        -0.731560        -2.751378
 H        -2.735805        -1.913679        -0.388046
 H        -1.457725        -1.335308         1.058615
 H        -0.259464        -2.204460        -0.135240
 H        -1.504655         0.975117         0.858163
 H        -0.340703         2.213901         0.286618
 H        -2.470983         2.166734        -0.717030
 H        -1.444069         1.765501        -2.058060
