19
Iteration:  1046
 O        -3.986765         0.422765        -1.244258
 C        -2.587182        -0.027711        -1.408553
 C        -2.413960        -1.037412        -2.471592
 C        -2.097543        -1.313074        -0.930959
 C        -0.619982        -1.317793        -0.473946
 C        -0.028652         0.033562         0.079728
 O         1.141430         0.019468         0.505312
 C        -0.838641         1.296835        -0.107839
 C        -1.558641         1.116548        -1.465396
 H        -4.206327         0.511926        -0.269558
 H        -3.301715        -1.460399        -2.931109
 H        -1.581362        -0.871545        -3.254203
 H        -2.813022        -1.984120        -0.475531
 H        -0.457640        -2.097509         0.287210
 H        -0.032164        -1.379391        -1.372622
 H        -1.642774         1.606422         0.542572
 H        -0.071397         2.040743        -0.044247
 H        -2.175468         1.982427        -1.705460
 H        -1.020802         0.848604        -2.387875
