19
Iteration:  2191charge 0 multiplicity 1
 O        -3.967951         0.032664        -1.328328
 C        -2.532800         0.131825        -1.413826
 C        -2.037473        -0.952019        -2.446301
 C        -2.157362        -1.298719        -0.962649
 C        -0.926923        -1.262937        -0.006935
 C        -0.008857        -0.006463        -0.056142
 O         1.242486        -0.145965         0.072519
 C        -0.738220         1.342970        -0.081887
 C        -1.834453         1.431418        -1.279473
 H        -4.567941         0.700550        -1.562839
 H        -2.906929        -1.401019        -2.956334
 H        -1.100223        -0.732582        -2.910888
 H        -2.948170        -1.999067        -0.663904
 H        -1.344262        -1.186736         1.006537
 H        -0.342030        -2.183691        -0.014752
 H        -1.263510         1.452627         0.806573
 H         0.005877         2.094054        -0.191869
 H        -2.494667         2.174212        -1.114104
 H        -1.153402         1.528844        -2.136443
