19
Iteration:  1520charge 0 multiplicity 1
 O        -4.002893         0.286070        -1.635480
 C        -2.640463         0.122824        -1.375972
 C        -1.926347        -0.913040        -2.306210
 C        -2.089313        -1.297597        -0.819164
 C        -0.857730        -1.362792        -0.037965
 C        -0.019213        -0.102100        -0.125612
 O         1.219873        -0.097100         0.005914
 C        -0.740763         1.194730        -0.178474
 C        -1.956294         1.371213        -1.007910
 H        -4.486689         0.454998        -0.782676
 H        -2.463101        -1.283791        -3.221960
 H        -0.893606        -0.704492        -2.582514
 H        -2.857200        -2.044987        -0.617276
 H        -1.063513        -1.380764         1.033040
 H        -0.131110        -2.138241        -0.257574
 H        -1.081410         1.349966         0.812928
 H         0.032038         1.873292        -0.546913
 H        -2.652564         2.001277        -0.454163
 H        -1.675570         1.964645        -1.905767
