19
Iteration:  4460charge 0 multiplicity 1
 O        -4.091744         0.258879        -1.641665
 C        -2.689360        -0.008502        -1.376125
 C        -1.937920        -0.803981        -2.409261
 C        -2.041003        -1.296963        -0.897756
 C        -0.843713        -1.353733         0.046277
 C         0.143302        -0.096909        -0.097439
 O         1.271678        -0.059610        -0.042357
 C        -0.624134         1.312665        -0.249798
 C        -2.129567         1.307444        -0.816961
 H        -4.516912        -0.070643        -0.758736
 H        -2.582468        -1.487849        -3.002726
 H        -1.125293        -0.503929        -2.953800
 H        -2.684097        -2.185740        -1.091895
 H        -1.196515        -1.289039         1.176831
 H        -0.422744        -2.479293         0.039684
 H        -0.593735         1.672089         0.857582
 H         0.055895         1.907211        -0.808436
 H        -2.784847         1.746519        -0.037996
 H        -2.117665         2.061622        -1.677713
