19
Iteration:  2867charge 0 multiplicity 1
 O        -3.976026         0.215165        -1.423075
 C        -2.580559         0.104526        -1.459995
 C        -2.036588        -1.023166        -2.328173
 C        -2.148271        -1.244177        -0.907205
 C        -0.837480        -1.327583        -0.174404
 C         0.011669        -0.008930         0.066608
 O         1.202704        -0.016777        -0.156502
 C        -0.965655         1.231793         0.126494
 C        -1.664984         1.306955        -1.207556
 H        -4.205870         0.620936        -0.630787
 H        -2.817349        -1.529056        -3.065360
 H        -1.145708        -0.867067        -2.848364
 H        -3.001236        -1.845196        -0.604350
 H        -0.952116        -1.700735         0.885254
 H        -0.081975        -2.016737        -0.557850
 H        -1.816960         1.023426         0.822516
 H        -0.433113         2.258192         0.314067
 H        -2.177089         2.303678        -1.333768
 H        -0.893633         1.383001        -1.905415
