19
Iteration:  3845
 O        -3.670360         0.256493        -0.728509
 C        -2.603280        -0.023761        -1.454745
 C        -2.680963        -1.131484        -2.439235
 C        -1.786638        -1.247843        -1.063506
 C        -0.337036        -1.187353        -0.939903
 C        -0.042275         0.021231        -0.032393
 O         0.495950        -0.085087         1.068851
 C        -0.754112         1.432667        -0.460028
 C        -1.656727         1.197840        -1.688309
 H        -3.453579         0.710575         0.154327
 H        -3.548497        -1.857144        -2.259986
 H        -2.242181        -0.874598        -3.383515
 H        -2.298488        -2.066587        -0.595381
 H         0.125503        -2.024592        -0.469321
 H         0.103475        -1.093107        -1.952735
 H        -1.199301         1.890338         0.455342
 H         0.208947         2.037979        -0.674890
 H        -2.216751         2.164001        -2.061287
 H        -0.937316         0.911156        -2.469615
