19
Iteration:   591charge 0 multiplicity 1
 O        -3.809088         0.365744        -1.064972
 C        -2.504147         0.103735        -1.631485
 C        -2.553035        -1.154392        -2.405575
 C        -1.997334        -1.183852        -0.994068
 C        -0.586208        -1.433833        -0.535339
 C        -0.009469        -0.035031         0.040552
 O         1.041636         0.065340         0.640869
 C        -0.944036         1.247016        -0.196506
 C        -1.641967         1.209234        -1.550913
 H        -3.516827         0.793313        -0.200390
 H        -3.538982        -1.531358        -2.612893
 H        -1.933637        -1.429855        -3.268288
 H        -2.792713        -1.624412        -0.459991
 H        -0.548216        -1.966780         0.439720
 H         0.030188        -1.938175        -1.282833
 H        -1.683771         1.285477         0.573909
 H        -0.340595         2.141070         0.051982
 H        -2.109690         2.236402        -1.505935
 H        -1.013244         1.385545        -2.447910
