19
Iteration:  4822
 O        -4.095859         0.075311        -1.135366
 C        -2.714668         0.117020        -1.249785
 C        -2.253181        -0.705810        -2.441282
 C        -1.928256        -1.260504        -1.094605
 C        -0.489083        -1.378391        -0.668574
 C         0.018958        -0.101749        -0.138180
 O         0.737912        -0.061878         0.933485
 C        -0.328952         1.195501        -0.787744
 C        -1.890783         1.429012        -1.058401
 H        -4.352759         0.287024        -0.139851
 H        -3.093266        -1.210610        -2.908410
 H        -1.536535        -0.311028        -3.032135
 H        -2.590532        -2.120433        -0.919813
 H        -0.437949        -2.099622         0.096915
 H         0.227773        -1.808851        -1.503540
 H         0.256051         1.824543         0.001205
 H         0.021307         1.024231        -1.861783
 H        -2.232016         1.802554        -0.132994
 H        -2.084618         2.132024        -1.870649
