19
Iteration:  3179charge 0 multiplicity 1
 O        -4.018362         0.258574        -1.749611
 C        -2.626870         0.095201        -1.382620
 C        -1.762996        -0.909852        -2.284339
 C        -2.059712        -1.288929        -0.762775
 C        -0.818374        -1.351894         0.201472
 C        -0.024158        -0.060329        -0.092364
 O         1.137541        -0.164097        -0.406955
 C        -0.788647         1.242519         0.034336
 C        -2.031352         1.406392        -0.955832
 H        -4.438289         0.423648        -0.948430
 H        -2.282630        -1.361127        -3.036421
 H        -0.688910        -0.617646        -2.532424
 H        -2.929097        -1.965074        -0.682019
 H        -1.095426        -1.478438         1.274789
 H        -0.009762        -2.106958         0.055917
 H        -1.051378         1.338942         1.108245
 H        -0.060335         2.014923        -0.302635
 H        -2.797941         1.958172        -0.496244
 H        -1.772766         1.957004        -1.857517
