19
Iteration:   664
 O        -4.008954         0.350396        -1.129750
 C        -2.643101         0.061635        -1.527444
 C        -2.606893        -1.179339        -2.345729
 C        -1.953359        -1.269207        -0.971765
 C        -0.434186        -1.224569        -0.743806
 C         0.006082        -0.003340         0.066534
 O         0.924194        -0.054061         0.908479
 C        -0.640516         1.321299        -0.365077
 C        -1.611989         1.210417        -1.573289
 H        -4.164845         0.463514        -0.109727
 H        -3.617808        -1.656236        -2.312386
 H        -2.212898        -1.350864        -3.381844
 H        -2.435655        -1.825279        -0.201509
 H        -0.156413        -2.177894        -0.260280
 H         0.186608        -1.091108        -1.667077
 H        -1.127547         1.651698         0.615845
 H         0.210791         2.010911        -0.449943
 H        -2.217870         2.070679        -1.449579
 H        -1.072354         1.440281        -2.484585
