19
Iteration:  1558
 O        -4.045687         0.121880        -1.621433
 C        -2.638838         0.055811        -1.474097
 C        -2.061815        -0.949836        -2.387494
 C        -2.075978        -1.188234        -0.933802
 C        -0.820737        -1.208441        -0.033522
 C         0.011091         0.008148        -0.048402
 O         1.234478        -0.211981        -0.000022
 C        -0.685078         1.239481        -0.038434
 C        -1.867242         1.357012        -0.979816
 H        -4.518391         0.696521        -0.846338
 H        -2.884105        -1.365322        -2.862351
 H        -1.153912        -0.612627        -2.949383
 H        -2.779744        -1.956119        -0.642107
 H        -1.346761        -1.315032         0.969906
 H        -0.318655        -2.181459        -0.153943
 H        -0.926950         1.654339         0.958417
 H         0.064945         2.006224        -0.214963
 H        -2.539958         2.140642        -0.498759
 H        -1.512389         1.871335        -1.884704
