19
Iteration:  1791
 O        -4.029702         0.267685        -1.270357
 C        -2.656358         0.013769        -1.424146
 C        -1.996509        -1.034849        -2.354323
 C        -2.127594        -1.283824        -0.885731
 C        -0.812583        -1.365043        -0.191416
 C        -0.074171        -0.055745        -0.154109
 O         1.150537        -0.016615         0.222573
 C        -0.777711         1.263520        -0.151410
 C        -1.691211         1.415501        -1.284266
 H        -4.226728         1.323764        -1.452323
 H        -2.729131        -1.671288        -3.001274
 H        -1.004972        -1.028222        -2.968799
 H        -2.804326        -2.118477        -0.656884
 H        -0.765246        -1.642118         0.930586
 H        -0.209257        -2.096843        -0.775838
 H        -1.474546         1.248387         0.834286
 H        -0.154734         2.186856        -0.006829
 H        -2.383047         2.224103        -1.293481
 H        -1.114525         1.393883        -2.287895
