19
Iteration:  1953
 O        -4.067495         0.330773        -1.399530
 C        -2.643153         0.069985        -1.502336
 C        -2.211459        -1.083994        -2.379257
 C        -2.058075        -1.187969        -0.891383
 C        -0.676321        -1.373007        -0.140206
 C         0.030044        -0.034954         0.044081
 O         1.224366         0.047136         0.019918
 C        -0.902967         1.202877         0.084700
 C        -1.692839         1.214952        -1.255201
 H        -4.322705         1.151190        -1.989667
 H        -2.935301        -1.589921        -2.933175
 H        -1.188026        -1.022824        -2.875287
 H        -2.837087        -1.768231        -0.381321
 H        -1.052602        -1.668550         0.858445
 H        -0.038502        -2.205190        -0.447031
 H        -1.633307         1.164585         0.863646
 H        -0.272885         2.060752         0.113132
 H        -2.210195         2.290771        -1.540467
 H        -0.725904         1.127151        -1.915033
