19
Iteration:  2042charge 0 multiplicity 1
 O        -3.976212         0.275925        -1.315028
 C        -2.608335         0.023068        -1.456068
 C        -2.154779        -0.955953        -2.408565
 C        -2.159579        -1.294151        -0.945751
 C        -0.813996        -1.404101        -0.019358
 C         0.023390        -0.067231         0.009362
 O         1.262823         0.090947         0.014178
 C        -0.925078         1.273656         0.031319
 C        -1.668048         1.222583        -1.309582
 H        -4.189657         0.965633        -2.080079
 H        -2.952630        -1.386180        -3.099212
 H        -1.247169        -0.775658        -2.905811
 H        -2.891419        -2.044271        -0.606702
 H        -1.167744        -1.569317         1.013110
 H        -0.160656        -2.202278        -0.398392
 H        -1.504866         1.224027         0.911156
 H        -0.233401         2.118834         0.083873
 H        -2.179953         2.254086        -1.602624
 H        -0.941283         1.249451        -2.108758
