19
Iteration:   139charge 0 multiplicity 1
 O        -4.059788         0.308285        -1.709902
 C        -2.651668         0.030234        -1.495660
 C        -2.111554        -1.185446        -2.273233
 C        -2.177337        -1.308161        -0.792698
 C        -0.772661        -1.200036         0.084511
 C         0.103326         0.032012        -0.125490
 O         1.296422        -0.096590        -0.022216
 C        -0.674543         1.241492        -0.141804
 C        -1.922543         1.326837        -1.036617
 H        -4.227231         1.222868        -1.117176
 H        -2.890234        -1.581293        -2.888134
 H        -1.189055        -1.187149        -2.802164
 H        -2.967867        -1.900530        -0.413477
 H        -0.946222        -1.250611         1.178984
 H        -0.084950        -1.968375        -0.215222
 H        -0.988866         1.095182         0.934165
 H        -0.129533         2.211284        -0.051180
 H        -2.768174         1.925903        -0.453276
 H        -1.668339         2.073175        -1.905476
