19
Iteration:  3822charge 0 multiplicity 1
 O        -3.777302         0.330569        -0.699156
 C        -2.572782         0.009313        -1.477697
 C        -2.615736        -1.122254        -2.393367
 C        -1.765921        -1.367147        -1.131712
 C        -0.302295        -1.199451        -0.989178
 C        -0.116613         0.014073         0.046604
 O         0.504422        -0.000465         1.066007
 C        -0.683191         1.248563        -0.549289
 C        -1.662161         1.225510        -1.650883
 H        -3.583392         0.684621         0.121824
 H        -3.649418        -1.494846        -2.415943
 H        -1.866224        -1.189712        -3.211166
 H        -2.324808        -1.825632        -0.320032
 H         0.268846        -2.070819        -0.577880
 H         0.183181        -0.931404        -1.944317
 H        -1.274784         1.750470         0.270303
 H         0.255454         1.931570        -0.620682
 H        -2.368149         2.111599        -1.471107
 H        -1.231887         1.324199        -2.705668
