19
Iteration:  4256charge 0 multiplicity 1
 O        -3.989809         0.230626        -1.569156
 C        -2.605043         0.073171        -1.400969
 C        -2.010626        -0.968004        -2.370186
 C        -2.005826        -1.303724        -0.917973
 C        -0.865038        -1.305414         0.129321
 C        -0.006517        -0.056581        -0.042582
 O         1.239964         0.057125        -0.354726
 C        -0.869327         1.187611         0.130220
 C        -1.829741         1.321580        -1.024291
 H        -4.444239         0.671183        -0.838190
 H        -2.561586        -1.757078        -2.948569
 H        -1.064189        -0.803163        -2.864992
 H        -2.774378        -2.105741        -0.815112
 H        -1.324806        -1.449641         1.144704
 H        -0.268869        -2.149235        -0.212409
 H        -1.499305         1.006173         1.065226
 H        -0.419944         2.128219         0.268957
 H        -2.497606         2.181673        -0.909459
 H        -1.397288         1.571299        -1.969636
