19
Iteration:  4890charge 0 multiplicity 1
 O        -4.038613         0.173412        -1.070944
 C        -2.637222         0.049966        -1.326689
 C        -2.209319        -0.682192        -2.601359
 C        -2.012770        -1.323379        -1.164257
 C        -0.597933        -1.403619        -0.432233
 C         0.093516        -0.109404        -0.158411
 O         0.792269         0.024639         0.800402
 C        -0.389106         1.216007        -0.824053
 C        -1.949011         1.255960        -0.817687
 H        -4.340459         0.993473        -1.391727
 H        -3.038307        -1.043638        -3.168748
 H        -1.210035        -0.399349        -3.101837
 H        -2.636047        -2.161445        -0.937364
 H        -0.551562        -2.023270         0.488777
 H         0.129521        -1.954104        -1.136767
 H         0.066883         2.084677        -0.330631
 H        -0.006931         1.220788        -1.938966
 H        -2.275432         1.122718         0.176433
 H        -2.350844         2.225886        -1.197359
