19
Iteration:  4263charge 0 multiplicity 1
 O        -3.986073         0.249081        -1.599733
 C        -2.621719         0.003852        -1.395536
 C        -1.979666        -0.963939        -2.342775
 C        -2.033381        -1.284517        -0.892713
 C        -0.818029        -1.278973         0.083269
 C         0.062122        -0.078791        -0.029359
 O         1.193868         0.027518        -0.383032
 C        -0.913378         1.195032         0.161913
 C        -1.832336         1.328384        -1.055157
 H        -4.431289         0.723439        -0.794856
 H        -2.578209        -1.560763        -2.937545
 H        -1.024734        -0.588234        -2.781963
 H        -2.698764        -2.100556        -0.678466
 H        -1.187859        -1.291324         1.076960
 H        -0.356668        -2.315943         0.062071
 H        -1.604512         1.005015         0.958236
 H        -0.364567         2.150425         0.425176
 H        -2.627101         2.150002        -0.780370
 H        -1.370189         1.627424        -2.005111
