19
Iteration:  2003
 O        -3.806847         0.312841        -1.176029
 C        -2.485331         0.075995        -1.510686
 C        -2.112275        -1.104075        -2.440152
 C        -2.052590        -1.273350        -0.920986
 C        -0.853124        -1.346265        -0.090469
 C        -0.114031         0.048957        -0.058413
 O         1.129806        -0.033090        -0.059010
 C        -1.050616         1.245013         0.132882
 C        -1.644256         1.327103        -1.346142
 H        -4.346749         0.660760        -1.890253
 H        -2.893936        -1.710125        -2.852760
 H        -1.191888        -0.998413        -3.061491
 H        -2.970834        -1.737486        -0.580748
 H        -1.082559        -1.603291         0.960177
 H        -0.184312        -2.183883        -0.369791
 H        -1.963893         1.214556         0.819488
 H        -0.413066         2.154086         0.289645
 H        -2.225827         2.148058        -1.556279
 H        -0.703584         1.181605        -1.983528
