19
Iteration:  4881
 O        -4.044410         0.205749        -1.062070
 C        -2.645264         0.015402        -1.389998
 C        -2.189200        -0.782224        -2.615107
 C        -1.990062        -1.291908        -1.148224
 C        -0.565190        -1.399189        -0.532889
 C        -0.044216        -0.030711        -0.079788
 O         0.827573         0.001283         0.825788
 C        -0.375508         1.188985        -0.850020
 C        -1.922948         1.251416        -0.755266
 H        -4.233056         1.112912        -1.126768
 H        -3.102753        -1.101605        -3.215185
 H        -1.357404        -0.491681        -3.404330
 H        -2.663022        -2.110938        -0.836470
 H        -0.590786        -2.019224         0.422468
 H         0.188103        -1.744849        -1.147586
 H         0.164002         1.910828        -0.365696
 H        -0.129774         1.405760        -1.932447
 H        -2.186456         1.373875         0.333610
 H        -2.406492         2.202568        -1.254307
