19
Iteration:   820
 O        -3.816678         0.372411        -0.869189
 C        -2.501152         0.035139        -1.438160
 C        -2.648738        -1.198735        -2.304532
 C        -1.889242        -1.327388        -0.983433
 C        -0.306112        -1.143316        -0.990978
 C        -0.061442        -0.027617        -0.009358
 O         0.463283        -0.122405         1.104609
 C        -0.599465         1.358474        -0.540816
 C        -1.594508         1.234844        -1.645883
 H        -3.540341         0.836217         0.021170
 H        -3.642991        -1.676343        -2.151422
 H        -2.093896        -1.248436        -3.202747
 H        -2.497420        -1.934877        -0.262565
 H         0.197539        -2.140785        -0.834808
 H         0.035259        -0.860911        -2.014728
 H        -1.215441         1.929295         0.204101
 H         0.294052         2.004983        -0.836449
 H        -2.170606         2.145545        -1.871208
 H        -1.085883         1.043520        -2.608616
