19
Iteration:   170charge 0 multiplicity 1
 O        -4.008213         0.251377        -1.692017
 C        -2.647556         0.094279        -1.291705
 C        -1.937201        -0.982743        -2.165341
 C        -2.152119        -1.223712        -0.731560
 C        -0.827412        -1.390022         0.046401
 C         0.016438        -0.091191        -0.061604
 O         1.238266        -0.011297        -0.127322
 C        -0.771210         1.181344        -0.180777
 C        -1.894211         1.377604        -1.187201
 H        -4.392121         0.801100        -1.023229
 H        -2.727205        -1.239715        -2.863360
 H        -0.925582        -0.807744        -2.538753
 H        -3.011954        -1.826830        -0.574994
 H        -1.005892        -1.575300         1.106188
 H        -0.387031        -2.311312        -0.358599
 H        -1.179813         1.330660         0.816205
 H         0.008929         1.957462        -0.342486
 H        -2.587480         2.049077        -0.874052
 H        -1.472896         1.471363        -2.188253
