19
Iteration:   928charge 0 multiplicity 1
 O        -3.900851         0.336772        -0.878082
 C        -2.586715         0.015989        -1.488751
 C        -2.673874        -1.108486        -2.456342
 C        -1.933844        -1.226615        -1.072781
 C        -0.427760        -1.223833        -0.675366
 C        -0.012882         0.003102         0.085200
 O         0.792008        -0.057341         0.972181
 C        -0.659961         1.329515        -0.449170
 C        -1.563788         1.195079        -1.742143
 H        -3.768622         0.151581         0.149470
 H        -3.495515        -1.695990        -2.724093
 H        -2.121642        -1.163673        -3.439595
 H        -2.472237        -1.986107        -0.495485
 H        -0.241904        -2.135995        -0.047517
 H         0.218455        -1.186961        -1.565360
 H        -1.517866         1.635946         0.202886
 H        -0.089567         2.262573        -0.376107
 H        -1.957892         2.159155        -1.688343
 H        -1.078454         0.954921        -2.686018
