19
Iteration:  3585charge 0 multiplicity 1
 O        -3.999112         0.247811        -1.153402
 C        -2.611751         0.018041        -1.506840
 C        -2.456669        -1.117785        -2.461272
 C        -2.008235        -1.241685        -0.987412
 C        -0.555902        -1.183026        -0.549821
 C        -0.003414         0.005479         0.126974
 O         1.108032         0.002127         0.544659
 C        -0.807614         1.237143        -0.168848
 C        -1.644357         1.229785        -1.471286
 H        -4.051884         0.413112        -0.124316
 H        -3.505502        -1.569189        -2.617427
 H        -1.736103        -0.945394        -3.254033
 H        -2.747831        -1.896144        -0.465977
 H        -0.429186        -1.899432         0.243865
 H         0.219095        -1.430112        -1.308932
 H        -1.601253         1.511018         0.599252
 H        -0.174650         2.159427        -0.266212
 H        -2.300146         2.132736        -1.395957
 H        -0.924239         1.426067        -2.228596
