19
Iteration:   957
 O        -3.890108         0.383625        -1.037794
 C        -2.628187         0.036515        -1.438904
 C        -2.559181        -1.113224        -2.366226
 C        -1.989355        -1.263197        -1.008597
 C        -0.490879        -1.235611        -0.823929
 C        -0.034539         0.018855         0.048995
 O         0.891821         0.002689         0.863982
 C        -0.775580         1.340127        -0.280281
 C        -1.579346         1.059291        -1.561163
 H        -3.762838         0.702912        -0.185452
 H        -3.454974        -1.739720        -2.708159
 H        -1.812361        -1.029146        -3.217549
 H        -2.607315        -1.965908        -0.391528
 H        -0.224547        -2.225302        -0.362715
 H         0.159449        -1.322990        -1.724136
 H        -1.418786         1.825938         0.461177
 H        -0.011591         2.112732        -0.506247
 H        -1.878597         2.097107        -1.881487
 H        -0.906307         0.535232        -2.301425
