19
Iteration:  1405charge 0 multiplicity 1
 O        -3.996372         0.178389        -1.721210
 C        -2.609828         0.122447        -1.366452
 C        -1.799497        -0.778610        -2.230637
 C        -2.064932        -1.247100        -0.825798
 C        -0.930277        -1.383369         0.173047
 C        -0.063648        -0.054801        -0.101048
 O         1.145706        -0.228371        -0.269572
 C        -0.676408         1.213190        -0.037818
 C        -1.982694         1.431246        -1.042544
 H        -4.660864         0.296024        -0.876963
 H        -2.311665        -1.285408        -3.086710
 H        -0.804166        -0.586032        -2.548306
 H        -2.948833        -1.930190        -0.697143
 H        -1.181766        -1.299409         1.211612
 H        -0.053695        -2.024345        -0.047193
 H        -1.045386         1.325649         1.006908
 H        -0.076607         2.044626        -0.346581
 H        -2.701533         2.009986        -0.449222
 H        -1.639873         1.881125        -1.961008
