19
Iteration:  1213charge 0 multiplicity 1
 O        -4.012238         0.228714        -1.564932
 C        -2.548161         0.063218        -1.367973
 C        -2.016420        -0.979708        -2.356558
 C        -2.195579        -1.249738        -0.857315
 C        -0.882085        -1.309139        -0.025374
 C         0.021046        -0.050287        -0.017636
 O         1.262090        -0.070388        -0.102997
 C        -0.874435         1.233846         0.065056
 C        -1.749125         1.369836        -1.203768
 H        -4.415738         0.689984        -0.778970
 H        -2.744544        -1.520671        -2.878391
 H        -1.034364        -0.858643        -2.910896
 H        -2.900613        -2.098376        -0.751168
 H        -1.085279        -1.572659         1.004830
 H        -0.185483        -1.884613        -0.526060
 H        -1.606459         1.186605         0.857895
 H        -0.152605         2.063216         0.241145
 H        -2.389378         2.244575        -1.130790
 H        -1.105642         1.556869        -2.087036
