19
Iteration:  1507charge 0 multiplicity 1
 O        -4.033400         0.268797        -1.661891
 C        -2.627296         0.017487        -1.383978
 C        -1.892400        -0.820458        -2.234406
 C        -2.151517        -1.238913        -0.845628
 C        -0.844252        -1.317383         0.004940
 C         0.012755        -0.132525        -0.195895
 O         1.169376        -0.114864         0.000987
 C        -0.690179         1.207401        -0.139830
 C        -1.949598         1.398512        -1.054353
 H        -4.453267         0.227599        -0.801561
 H        -2.403330        -1.618595        -2.688895
 H        -0.841492        -0.483197        -2.611599
 H        -2.765571        -2.095612        -0.727954
 H        -0.934583        -1.533650         1.034558
 H        -0.473175        -2.231955        -0.467828
 H        -0.748195         1.339357         0.965734
 H         0.038448         1.997502        -0.249884
 H        -2.690273         1.881127        -0.502861
 H        -1.759755         1.963366        -2.000864
