19
Iteration:   305charge 0 multiplicity 1
 O        -3.912958         0.177581        -1.731531
 C        -2.562870         0.111757        -1.504743
 C        -2.163610        -1.096288        -2.239086
 C        -2.159444        -1.179747        -0.692777
 C        -0.812819        -1.276244         0.083566
 C         0.050069        -0.079237        -0.157288
 O         1.266662        -0.053913        -0.169798
 C        -0.811955         1.144932         0.004359
 C        -1.866858         1.465817        -1.127499
 H        -4.385303         0.602445        -0.966420
 H        -3.005491        -1.653121        -2.710017
 H        -1.161471        -0.920721        -2.560456
 H        -3.086440        -1.505384        -0.126463
 H        -0.923356        -1.133122         1.188340
 H        -0.399777        -2.244971        -0.144688
 H        -1.311057         1.063227         1.021003
 H        -0.148575         1.999006         0.135351
 H        -2.555440         2.142417        -0.636776
 H        -1.305889         1.852187        -2.004767
