19
Iteration:   188charge 0 multiplicity 1
 O        -3.998126         0.103856        -1.635643
 C        -2.636847         0.104830        -1.385999
 C        -1.998765        -0.890260        -2.231270
 C        -2.141455        -1.275651        -0.702115
 C        -0.859281        -1.312770         0.067394
 C        -0.065301        -0.053238        -0.079128
 O         1.151331        -0.189912        -0.173614
 C        -0.721593         1.357289        -0.078307
 C        -1.754992         1.449024        -1.234395
 H        -4.425670         0.241789        -0.780360
 H        -2.465366        -1.576357        -3.069530
 H        -0.938704        -0.580216        -2.489359
 H        -2.914107        -2.049469        -0.361120
 H        -0.984928        -1.538904         1.153907
 H        -0.126532        -2.096255        -0.341683
 H        -1.226610         1.453411         0.910877
 H        -0.034314         2.200401        -0.095912
 H        -2.512680         2.361399        -0.883188
 H        -1.249778         1.680583        -2.186629
