19
Iteration:    87
 O        -4.099287         0.197344        -1.537758
 C        -2.611100         0.056605        -1.330337
 C        -1.884195        -0.907311        -2.237475
 C        -2.115574        -1.210135        -0.805249
 C        -0.907647        -1.351088         0.052612
 C        -0.035227        -0.103662        -0.077046
 O         1.210796        -0.072823        -0.028375
 C        -0.691164         1.266960        -0.291693
 C        -1.820297         1.400154        -1.264872
 H        -4.464405         0.005165        -0.588472
 H        -2.440197        -1.482895        -2.886420
 H        -0.864967        -0.838154        -2.522210
 H        -2.855122        -1.946884        -0.599231
 H        -1.164980        -1.496579         1.136636
 H        -0.410840        -2.221722        -0.345294
 H        -1.309478         1.349208         0.647173
 H         0.076798         2.023711        -0.133111
 H        -2.454645         2.198189        -0.820747
 H        -1.675904         1.877077        -2.193664
