19
Iteration:  4048
 O        -3.940942         0.375928        -1.087059
 C        -2.589153         0.007376        -1.472820
 C        -2.411269        -1.101175        -2.452469
 C        -2.019599        -1.295192        -0.953912
 C        -0.523254        -1.204300        -0.664228
 C        -0.021192         0.009258         0.056491
 O         1.075971         0.063320         0.586744
 C        -0.946919         1.290375        -0.142019
 C        -1.610280         1.096491        -1.453549
 H        -3.836854         0.175122        -0.056930
 H        -3.444532        -1.568554        -2.584163
 H        -1.961107        -1.096234        -3.424530
 H        -2.752329        -1.830701        -0.355113
 H        -0.235364        -2.248813        -0.257027
 H        -0.052526        -1.282175        -1.626986
 H        -1.753321         1.294700         0.625375
 H        -0.345337         2.141396        -0.006416
 H        -2.087184         2.060900        -1.800329
 H        -0.795739         0.980711        -2.290698
