19
Iteration:  2944charge 0 multiplicity 1
 O        -4.095187         0.155743        -1.588399
 C        -2.682677         0.073516        -1.439432
 C        -1.981521        -0.914173        -2.308571
 C        -2.038245        -1.149328        -0.841447
 C        -0.874625        -1.254384        -0.074395
 C         0.081432        -0.000033        -0.081436
 O         1.264074        -0.175002        -0.087142
 C        -0.824912         1.236897         0.044352
 C        -1.849964         1.369025        -1.108573
 H        -4.504106         0.126268        -0.641173
 H        -2.619294        -1.594685        -2.934313
 H        -0.934704        -0.719165        -2.689994
 H        -2.665427        -2.001713        -0.643344
 H        -0.952925        -1.679125         0.948671
 H        -0.304074        -2.031530        -0.595343
 H        -1.273285         1.164344         1.075081
 H        -0.153152         2.159274        -0.088391
 H        -2.563468         2.189536        -0.822424
 H        -1.249220         1.633813        -1.899997
