19
Iteration:  2963charge 0 multiplicity 1
 O        -4.023729         0.164918        -1.639728
 C        -2.628495         0.138715        -1.400118
 C        -2.008534        -0.982207        -2.340654
 C        -2.153685        -1.215877        -0.803740
 C        -0.729842        -1.338212        -0.104146
 C         0.070750        -0.032184        -0.046140
 O         1.252866        -0.161321        -0.069427
 C        -0.768296         1.283301         0.003694
 C        -1.975542         1.430216        -1.091361
 H        -4.380600         0.188561        -0.720601
 H        -2.765361        -1.466392        -3.141707
 H        -1.061151        -0.719475        -2.756968
 H        -2.928641        -1.917267        -0.401455
 H        -0.968951        -1.468117         0.938282
 H        -0.070137        -2.176756        -0.332703
 H        -1.337222         1.170511         0.867580
 H         0.017853         2.081910         0.048831
 H        -2.732578         2.097654        -0.600590
 H        -1.673587         2.020309        -1.980514
