19
Iteration:  1864charge 0 multiplicity 1
 O        -4.071381         0.271228        -1.270300
 C        -2.652074         0.033381        -1.415887
 C        -2.173525        -0.878154        -2.457148
 C        -2.101925        -1.298645        -0.894981
 C        -0.783217        -1.278973        -0.227081
 C         0.090611         0.000127        -0.061135
 O         1.244574        -0.108339         0.366671
 C        -0.739048         1.249581        -0.219089
 C        -1.783050         1.309105        -1.309945
 H        -4.565613        -0.057458        -2.114798
 H        -2.854599        -1.429709        -3.196901
 H        -1.257729        -0.621861        -2.929828
 H        -2.795347        -2.106785        -0.622284
 H        -1.048493        -1.358683         0.839911
 H        -0.161656        -2.155481        -0.470591
 H        -0.984582         1.459055         0.797514
 H         0.035071         1.997023        -0.302682
 H        -2.675649         1.979801        -1.020180
 H        -1.316450         1.332094        -2.280164
