19
Iteration:   641
 O        -3.999117         0.445396        -1.172236
 C        -2.661535        -0.010530        -1.440963
 C        -2.528931        -1.163453        -2.393029
 C        -2.011219        -1.307854        -0.937728
 C        -0.524452        -1.118894        -0.744825
 C         0.054336         0.004549         0.078140
 O         1.052193        -0.101810         0.854971
 C        -0.758661         1.372407        -0.311540
 C        -1.693044         1.068226        -1.503076
 H        -4.003815         0.969460        -0.365869
 H        -3.434764        -1.741472        -2.797419
 H        -1.803780        -1.095894        -3.210766
 H        -2.506253        -1.932021        -0.194829
 H        -0.073723        -2.010843        -0.273488
 H         0.001188        -1.078009        -1.727199
 H        -1.124257         1.749843         0.697977
 H         0.045884         2.055451        -0.607700
 H        -2.126644         1.918827        -1.940967
 H        -0.915301         0.813563        -2.230307
