19
Iteration:  2313charge 0 multiplicity 1
 O        -3.878626         0.397041        -1.539254
 C        -2.506609         0.046561        -1.382267
 C        -1.986886        -1.039263        -2.346523
 C        -2.157555        -1.272558        -0.805068
 C        -0.850830        -1.403383         0.028943
 C        -0.079011        -0.064259        -0.012649
 O         1.123914         0.114818        -0.285133
 C        -0.902816         1.156021         0.083393
 C        -1.747815         1.297959        -1.125153
 H        -4.590480        -0.285117        -1.496275
 H        -2.796972        -1.416487        -2.993517
 H        -1.042823        -0.826586        -2.941324
 H        -2.803947        -2.066632        -0.446552
 H        -1.033686        -1.307040         1.131961
 H        -0.208166        -2.328271        -0.101710
 H        -1.619083         1.073533         0.847420
 H        -0.266040         2.023046         0.325890
 H        -2.371325         2.188432        -1.184463
 H        -0.972857         1.393096        -2.051150
