19
Iteration:  2031charge 0 multiplicity 1
 O        -3.989679         0.269524        -1.253983
 C        -2.574564         0.108032        -1.487041
 C        -2.163735        -1.007485        -2.482110
 C        -2.058576        -1.295366        -0.949368
 C        -0.823494        -1.365099        -0.022612
 C        -0.019060         0.011295         0.112720
 O         1.186546         0.076440        -0.045181
 C        -0.888712         1.156955         0.056858
 C        -1.615372         1.238972        -1.361483
 H        -4.434434         0.827738        -1.987000
 H        -2.933282        -1.679616        -3.021317
 H        -1.236195        -0.902056        -2.955230
 H        -3.042362        -1.646141        -0.594606
 H        -1.233059        -1.688908         0.951793
 H        -0.137570        -2.183101        -0.297782
 H        -1.728629         1.314197         0.634308
 H        -0.252270         2.037412         0.152112
 H        -2.205813         2.276927        -1.234346
 H        -0.781896         1.220713        -2.058298
