19
Iteration:  4338charge 0 multiplicity 1
 O        -3.891560         0.208264        -1.733629
 C        -2.535916         0.014441        -1.363804
 C        -1.852065        -0.963048        -2.315342
 C        -2.076497        -1.236939        -0.770545
 C        -0.875390        -1.251175         0.110259
 C        -0.038518        -0.016481        -0.084739
 O         1.102349        -0.087579        -0.561171
 C        -0.830175         1.232679         0.214629
 C        -1.947571         1.368625        -0.876017
 H        -4.509444         0.338387        -1.068939
 H        -2.514662        -1.552945        -2.865538
 H        -0.917376        -0.591781        -2.771182
 H        -2.735940        -2.075429        -0.700770
 H        -1.288070        -1.368963         1.192844
 H        -0.251411        -2.195168         0.032390
 H        -1.304724         1.077008         1.183882
 H        -0.255519         2.204211         0.150980
 H        -2.728084         1.939746        -0.395230
 H        -1.550914         1.793684        -1.846537
