19
Iteration:  2208
 O        -4.056763         0.149693        -1.350001
 C        -2.635452         0.007379        -1.461590
 C        -2.021054        -0.955800        -2.419895
 C        -2.072045        -1.220182        -0.880143
 C        -0.854659        -1.239546        -0.022724
 C        -0.006873         0.007538        -0.011451
 O         1.211156        -0.167196         0.004723
 C        -0.772569         1.322051        -0.071089
 C        -1.760536         1.326736        -1.232083
 H        -4.270270         0.726131        -2.028497
 H        -2.596356        -1.545792        -3.200595
 H        -0.969710        -0.726924        -2.803320
 H        -2.847431        -1.884713        -0.437593
 H        -1.284440        -1.343059         1.013439
 H        -0.137055        -2.031327        -0.306012
 H        -1.443986         1.349964         0.931673
 H        -0.100165         2.235391        -0.090475
 H        -2.585437         2.187090        -0.960383
 H        -1.318658         1.603028        -2.202479
