19
Iteration:   165
 O        -4.008235         0.290091        -1.703738
 C        -2.652343         0.072678        -1.304741
 C        -1.943872        -1.022298        -2.161038
 C        -2.140524        -1.187800        -0.722347
 C        -0.836312        -1.400031         0.013928
 C         0.041118        -0.132385        -0.087783
 O         1.268259         0.021632        -0.103595
 C        -0.782043         1.184202        -0.166185
 C        -1.907265         1.324647        -1.184795
 H        -4.343376         0.972885        -1.005355
 H        -2.738773        -1.354602        -2.893263
 H        -0.966308        -0.787849        -2.628291
 H        -2.982509        -1.918474        -0.463332
 H        -1.079720        -1.413084         1.116025
 H        -0.449028        -2.404320        -0.287596
 H        -1.118370         1.401552         0.883383
 H        -0.084531         1.989990        -0.347820
 H        -2.756722         2.058474        -0.731892
 H        -1.542479         1.674896        -2.183109
