19
Iteration:  4262charge 0 multiplicity 1
 O        -3.984791         0.246935        -1.595141
 C        -2.619126         0.013253        -1.397446
 C        -1.986798        -0.965223        -2.343849
 C        -2.028775        -1.288375        -0.900429
 C        -0.823316        -1.276430         0.090462
 C         0.051763        -0.082006        -0.030188
 O         1.202561         0.033122        -0.380088
 C        -0.909137         1.193801         0.156474
 C        -1.831834         1.328819        -1.044566
 H        -4.452910         0.725160        -0.798896
 H        -2.573023        -1.608315        -2.940759
 H        -1.024977        -0.616591        -2.791963
 H        -2.704369        -2.099548        -0.713774
 H        -1.209646        -1.327843         1.096997
 H        -0.359427        -2.311739         0.026118
 H        -1.591641         1.010031         0.963853
 H        -0.376957         2.174359         0.415448
 H        -2.598244         2.150062        -0.800427
 H        -1.381906         1.615753        -2.041793
