19
Iteration:  1315charge 0 multiplicity 1
 O        -3.930555         0.223813        -1.766450
 C        -2.545694         0.079600        -1.371358
 C        -1.871375        -0.868883        -2.275983
 C        -2.195503        -1.346012        -0.750438
 C        -0.894557        -1.328975         0.153513
 C        -0.012844        -0.082633         0.019870
 O         1.106334        -0.107446        -0.418977
 C        -0.815802         1.228825         0.062896
 C        -1.848113         1.406643        -1.067683
 H        -4.492554         0.722557        -1.002566
 H        -2.378045        -1.376300        -3.091896
 H        -0.835738        -0.663208        -2.495208
 H        -2.872470        -2.122882        -0.473733
 H        -1.092250        -1.460119         1.231671
 H        -0.313704        -2.224793        -0.035869
 H        -1.135755         1.401426         1.090124
 H        -0.202318         2.139199        -0.086122
 H        -2.505775         2.008561        -0.397394
 H        -1.341073         1.922314        -1.851797
