19
Iteration:  3607charge 0 multiplicity 1
 O        -3.964354         0.274056        -1.127124
 C        -2.663587         0.053104        -1.438780
 C        -2.446867        -1.122715        -2.465255
 C        -2.069072        -1.240472        -0.951414
 C        -0.557154        -1.332248        -0.603176
 C         0.076835        -0.012091         0.035677
 O         1.088039         0.064448         0.648819
 C        -0.830116         1.322476        -0.188681
 C        -1.666939         1.252165        -1.509224
 H        -4.104380        -0.032762        -0.280605
 H        -3.425326        -1.564598        -2.857164
 H        -1.470684        -1.088043        -2.959212
 H        -2.814337        -1.901469        -0.443681
 H        -0.300445        -2.291358        -0.208880
 H         0.019675        -1.168072        -1.573730
 H        -1.456761         1.455846         0.768470
 H        -0.046353         2.120812        -0.134828
 H        -2.122025         2.258129        -1.708311
 H        -0.943736         1.038235        -2.271287
