19
Iteration:    92
 O        -4.104970         0.167794        -1.574752
 C        -2.600736         0.067331        -1.366344
 C        -1.933285        -0.948583        -2.241418
 C        -2.111829        -1.220301        -0.777709
 C        -0.899505        -1.336480         0.053715
 C        -0.019568        -0.057968        -0.083114
 O         1.189172        -0.077813        -0.031623
 C        -0.670709         1.267143        -0.253846
 C        -1.797315         1.423340        -1.189521
 H        -4.475262         0.075487        -0.642391
 H        -2.633889        -1.346959        -3.089057
 H        -0.861173        -0.978707        -2.647441
 H        -2.942150        -1.921717        -0.464294
 H        -1.134828        -1.568600         1.080476
 H        -0.331790        -2.187373        -0.424096
 H        -1.137331         1.441253         0.724892
 H         0.119033         2.040954        -0.268066
 H        -2.501087         2.165535        -0.809243
 H        -1.616181         1.783603        -2.269192
