19
Iteration:  2498
 O        -4.056759         0.299813        -1.197097
 C        -2.673248         0.000964        -1.477322
 C        -2.068626        -0.995331        -2.449189
 C        -2.018133        -1.314916        -0.930995
 C        -0.793287        -1.293441        -0.144708
 C         0.047188        -0.029640        -0.003287
 O         1.249874        -0.084529         0.208930
 C        -0.833060         1.256697        -0.118707
 C        -1.835447         1.371290        -1.363813
 H        -4.457540         0.533345        -2.135397
 H        -2.682502        -1.727759        -3.097050
 H        -1.082386        -0.634465        -2.869193
 H        -2.894770        -1.901942        -0.562272
 H        -0.985053        -1.552431         0.891973
 H        -0.079796        -2.030961        -0.587327
 H        -1.375072         1.395300         0.849347
 H        -0.125573         2.192915        -0.156631
 H        -2.618726         2.067740        -1.248491
 H        -1.253954         1.542360        -2.201849
