19
Iteration:  2544
 O        -3.984141         0.184633        -1.268063
 C        -2.567670         0.086336        -1.529672
 C        -2.282915        -1.111265        -2.505439
 C        -2.093717        -1.286471        -0.962442
 C        -0.752416        -1.454343        -0.139197
 C        -0.037336        -0.018225         0.070400
 O         1.202487         0.091033         0.124297
 C        -0.814515         1.316009         0.010380
 C        -1.627734         1.349370        -1.313353
 H        -4.220638         1.156941        -1.364959
 H        -3.147322        -1.466834        -2.975559
 H        -1.335904        -0.823958        -3.107695
 H        -2.988682        -1.725801        -0.569758
 H        -1.213427        -1.622132         0.831218
 H        -0.002583        -2.288758        -0.317665
 H        -1.562335         1.373342         0.870116
 H        -0.120736         2.201741         0.095451
 H        -2.291772         2.162237        -1.333798
 H        -1.052330         1.319824        -2.188789
