19
Iteration:   546
 O        -3.907603         0.512733        -1.104863
 C        -2.625681        -0.044610        -1.416853
 C        -2.316243        -0.977499        -2.462894
 C        -2.087895        -1.243183        -0.924672
 C        -0.636647        -1.361932        -0.465001
 C        -0.049025         0.005464         0.037978
 O         1.105556         0.035263         0.444465
 C        -0.906809         1.316197        -0.145464
 C        -1.574860         1.045076        -1.469011
 H        -4.397122        -0.362708        -0.866219
 H        -3.133471        -1.681571        -2.873651
 H        -1.606676        -0.879841        -3.254330
 H        -2.762048        -1.945654        -0.519977
 H        -0.792171        -2.078033         0.375855
 H         0.109302        -1.897849        -1.054350
 H        -1.647925         1.575138         0.569665
 H        -0.295061         2.198785        -0.242335
 H        -2.103719         1.861281        -1.979391
 H        -0.734606         0.865121        -2.210248
