19
Iteration:  1783
 O        -4.009684         0.293837        -1.294387
 C        -2.663551         0.045500        -1.431002
 C        -2.037297        -1.040478        -2.358042
 C        -2.165109        -1.302702        -0.866761
 C        -0.788657        -1.345100        -0.199265
 C         0.004225         0.004527        -0.111374
 O         1.144670        -0.021721         0.181700
 C        -0.826039         1.271712        -0.083954
 C        -1.693700         1.317516        -1.315154
 H        -4.289204         1.277930        -1.542080
 H        -2.571968        -1.712410        -2.941484
 H        -1.035698        -0.889506        -2.919542
 H        -2.868982        -2.118008        -0.695510
 H        -0.738812        -1.635676         0.882492
 H        -0.149306        -2.128642        -0.660362
 H        -1.457671         1.059526         0.706396
 H        -0.012132         1.998802         0.141834
 H        -2.348237         2.198253        -1.301441
 H        -1.214117         1.463725        -2.270007
