19
Iteration:  2078charge 0 multiplicity 1
 O        -4.018693         0.266212        -1.401267
 C        -2.626494         0.099548        -1.539330
 C        -2.137138        -1.126589        -2.346362
 C        -2.099304        -1.250226        -0.823942
 C        -0.756874        -1.289804        -0.175809
 C         0.017747        -0.007807        -0.005918
 O         1.264488        -0.098841         0.134640
 C        -0.801297         1.250605        -0.070592
 C        -1.832952         1.394452        -1.211759
 H        -4.419986         0.867590        -2.170729
 H        -2.857515        -1.562334        -2.955792
 H        -1.081560        -1.003753        -2.756197
 H        -2.885598        -1.854427        -0.409130
 H        -0.789237        -1.801038         0.777441
 H        -0.051518        -1.981207        -0.674108
 H        -1.293761         1.264407         0.890679
 H        -0.179859         2.159248        -0.105317
 H        -2.757568         1.916161        -0.835692
 H        -1.339761         1.751574        -2.203285
