19
Iteration:  4617charge 0 multiplicity 1
 O        -4.128992         0.101513        -1.252007
 C        -2.674940         0.107006        -1.328336
 C        -2.054540        -0.708060        -2.474327
 C        -2.021771        -1.300311        -1.004692
 C        -0.686068        -1.421676        -0.362756
 C         0.029109        -0.068579        -0.056729
 O         0.970309        -0.051249         0.598145
 C        -0.380883         1.252032        -0.711743
 C        -2.015931         1.439380        -0.915512
 H        -4.269754        -0.741751        -0.709183
 H        -2.877806        -1.199299        -3.235843
 H        -1.127123        -0.237707        -2.813205
 H        -2.769573        -2.124946        -0.843937
 H        -0.793914        -2.028639         0.635220
 H         0.036798        -1.971304        -1.131551
 H         0.080360         2.134975        -0.413703
 H        -0.069227         1.065010        -1.736449
 H        -2.501090         1.977425        -0.053422
 H        -2.083863         2.005263        -1.759212
