19
Iteration:  3358charge 0 multiplicity 1
 O        -4.020529         0.283337        -1.430047
 C        -2.644180         0.028346        -1.390564
 C        -2.022770        -0.916579        -2.327688
 C        -2.099407        -1.236455        -0.808146
 C        -0.765492        -1.381439        -0.236275
 C         0.015973        -0.013370        -0.159434
 O         1.218726         0.032732         0.108061
 C        -0.877365         1.182569        -0.060338
 C        -1.823672         1.270109        -1.219428
 H        -4.096759         0.571483        -0.560811
 H        -2.672498        -1.460769        -2.962820
 H        -0.996239        -0.679849        -2.868350
 H        -2.754755        -2.085328        -0.553467
 H        -0.993962        -1.645074         0.859569
 H        -0.245972        -2.203196        -0.762498
 H        -1.395832         1.052968         0.966593
 H        -0.264204         2.053052         0.143452
 H        -2.447114         2.080183        -1.273614
 H        -1.264657         1.344895        -2.215885
