19
Iteration:  3243charge 0 multiplicity 1
 O        -3.997435         0.122096        -1.610688
 C        -2.558615         0.071569        -1.420159
 C        -1.863680        -0.928204        -2.292562
 C        -2.046866        -1.191661        -0.871002
 C        -0.844468        -1.279706         0.113079
 C        -0.080077        -0.034787        -0.004412
 O         1.123711        -0.169598        -0.382461
 C        -0.833165         1.227684         0.143664
 C        -1.861266         1.464472        -1.103551
 H        -4.495458         0.253995        -0.821690
 H        -2.595035        -1.506154        -2.721496
 H        -0.897785        -0.671750        -2.774182
 H        -2.889716        -1.920045        -0.776620
 H        -1.190690        -1.559154         1.088345
 H        -0.148367        -2.009425        -0.299719
 H        -1.298585         1.358052         1.062250
 H        -0.026362         1.941161         0.066504
 H        -2.648065         2.219157        -0.675856
 H        -1.334805         1.972642        -1.860575
