19
Iteration:  3393charge 0 multiplicity 1
 O        -4.037803         0.225147        -1.308991
 C        -2.646466        -0.014542        -1.556284
 C        -2.274806        -0.971505        -2.527468
 C        -1.968754        -1.258557        -0.945227
 C        -0.746923        -1.346801        -0.188159
 C         0.013461         0.009156         0.074453
 O         1.208329         0.018701         0.166744
 C        -0.784946         1.268457        -0.020518
 C        -1.748558         1.322910        -1.286833
 H        -4.085598         0.593021        -0.465473
 H        -3.159985        -1.636192        -2.773195
 H        -1.449277        -0.746262        -3.196754
 H        -2.677052        -2.084696        -0.749224
 H        -1.044257        -1.668708         0.879748
 H        -0.021713        -2.134717        -0.451087
 H        -1.273402         1.191326         1.042107
 H        -0.094609         2.104349        -0.050979
 H        -2.391961         2.155083        -1.127484
 H        -1.208912         1.496699        -2.231416
