19
Iteration:  4506
 O        -4.071002        -0.029725        -1.516941
 C        -2.648721         0.111613        -1.320972
 C        -1.850176        -0.679853        -2.368426
 C        -2.095770        -1.237481        -0.957583
 C        -0.907522        -1.324252        -0.120578
 C         0.010313        -0.071488        -0.163700
 O         1.225462        -0.195573         0.216688
 C        -0.547057         1.377029        -0.547638
 C        -2.085753         1.354585        -0.750786
 H        -4.517938         0.488366        -0.820723
 H        -2.485011        -1.120567        -3.040521
 H        -0.860099        -0.475276        -2.862415
 H        -2.813924        -2.046066        -0.808884
 H        -1.219547        -1.609766         0.982327
 H        -0.164504        -2.241093        -0.339076
 H        -0.291613         2.249958         0.098448
 H        -0.211692         1.608600        -1.528893
 H        -2.581895         1.388167         0.300195
 H        -2.390492         2.265795        -1.221878
