19
Iteration:  1185
 O        -4.077671         0.245958        -1.535836
 C        -2.531811         0.130804        -1.479895
 C        -2.145930        -1.094261        -2.399791
 C        -2.121184        -1.124856        -0.808128
 C        -0.711499        -1.348124        -0.132652
 C        -0.000373        -0.103806        -0.029359
 O         1.259812        -0.028506         0.063449
 C        -0.872172         1.130090         0.011648
 C        -1.760220         1.424209        -1.226268
 H        -4.311700         0.660865        -0.705581
 H        -3.043399        -1.620421        -2.848402
 H        -1.211888        -0.968503        -2.903234
 H        -2.952147        -1.684873        -0.410157
 H        -1.064286        -1.467349         0.944759
 H         0.094668        -2.128388        -0.520250
 H        -1.632619         1.007041         0.872137
 H        -0.047754         1.829218         0.306752
 H        -2.504259         2.269355        -1.173959
 H        -1.082244         1.733076        -2.040116
