19
Iteration:   308
 O        -3.934322         0.204429        -1.728056
 C        -2.553596         0.103406        -1.494867
 C        -2.170407        -1.093513        -2.252185
 C        -2.138543        -1.196909        -0.673666
 C        -0.807895        -1.278620         0.081106
 C         0.049125        -0.072917        -0.156334
 O         1.268377        -0.048526        -0.167800
 C        -0.815516         1.161355         0.005469
 C        -1.869372         1.429355        -1.142142
 H        -4.368162         0.706261        -1.105632
 H        -2.988001        -1.597929        -2.686027
 H        -1.107582        -1.006622        -2.671619
 H        -3.046306        -1.519782        -0.169943
 H        -0.926632        -1.136137         1.158084
 H        -0.419359        -2.296407        -0.088222
 H        -1.342513         1.082231         1.006403
 H        -0.106500         1.991093         0.174867
 H        -2.588801         2.080403        -0.584796
 H        -1.330656         1.849894        -1.934997
