19
Iteration:  4926
 O        -4.148871        -0.003944        -1.079003
 C        -2.673083         0.101779        -1.307343
 C        -2.088589        -0.522880        -2.527099
 C        -1.970570        -1.251792        -1.196387
 C        -0.712159        -1.364906        -0.325781
 C         0.057687        -0.076118        -0.062108
 O         0.924178        -0.080173         0.699941
 C        -0.399831         1.133415        -0.873209
 C        -1.939775         1.392092        -0.806816
 H        -4.396379         0.009588        -1.977670
 H        -2.804427        -0.842785        -3.440862
 H        -1.183442        -0.261038        -3.066390
 H        -2.730669        -2.084305        -1.075620
 H        -0.837815        -1.966952         0.646822
 H        -0.039090        -1.842098        -0.976564
 H         0.251942         1.883073        -0.580910
 H        -0.058364         0.767840        -1.903375
 H        -2.112977         1.715267         0.263150
 H        -2.354031         2.301320        -1.396590
