19
Iteration:   309charge 0 multiplicity 1
 O        -3.940132         0.210786        -1.730630
 C        -2.551574         0.100760        -1.489360
 C        -2.167103        -1.091993        -2.253869
 C        -2.133342        -1.200120        -0.668330
 C        -0.807883        -1.280387         0.078773
 C         0.048806        -0.070881        -0.154809
 O         1.269169        -0.046853        -0.167701
 C        -0.816671         1.168202         0.006743
 C        -1.869465         1.414695        -1.143091
 H        -4.401813         0.786791        -1.085678
 H        -2.986906        -1.587393        -2.697649
 H        -1.112900        -1.050803        -2.710871
 H        -3.026435        -1.535555        -0.190304
 H        -0.937118        -1.145298         1.153219
 H        -0.411581        -2.310745        -0.069276
 H        -1.347908         1.084490         0.981774
 H        -0.095045         1.992785         0.180051
 H        -2.599185         2.061592        -0.588712
 H        -1.332894         1.871265        -1.938524
