19
Iteration:  3497charge 0 multiplicity 1
 O        -3.943764         0.275295        -1.281516
 C        -2.556523         0.012653        -1.449030
 C        -2.434280        -1.066505        -2.425563
 C        -2.086454        -1.286805        -0.974035
 C        -0.626757        -1.197115        -0.522014
 C         0.001036         0.048042        -0.026334
 O         1.187846         0.018558         0.396829
 C        -0.902167         1.274565        -0.007579
 C        -1.668835         1.222765        -1.340439
 H        -4.169803         0.044370        -0.314904
 H        -3.290978        -1.578194        -2.866367
 H        -1.551301        -1.112847        -3.134158
 H        -2.816198        -1.746914        -0.274438
 H        -0.676443        -1.663557         0.445531
 H         0.184257        -1.840038        -0.880664
 H        -1.508393         0.996406         0.932133
 H        -0.171336         2.104612         0.231209
 H        -2.226568         2.174459        -1.635099
 H        -0.953557         1.115925        -2.200603
