19
Iteration:  4257
 O        -3.989308         0.235719        -1.570614
 C        -2.606927         0.064024        -1.401054
 C        -2.006895        -0.966055        -2.362312
 C        -2.007499        -1.301836        -0.918223
 C        -0.855712        -1.296108         0.122504
 C        -0.000168        -0.066881        -0.039232
 O         1.237782         0.054392        -0.360883
 C        -0.875883         1.190301         0.132983
 C        -1.831445         1.325902        -1.021818
 H        -4.433602         0.658692        -0.878745
 H        -2.572312        -1.770102        -2.965317
 H        -1.065763        -0.776638        -2.844914
 H        -2.768843        -2.114366        -0.813378
 H        -1.319026        -1.439736         1.165237
 H        -0.303536        -2.178316        -0.174530
 H        -1.528508         1.006633         1.057322
 H        -0.432350         2.138742         0.299448
 H        -2.482598         2.147998        -0.901828
 H        -1.409413         1.574873        -2.012833
