19
Iteration:  2412
 O        -4.013955         0.333060        -1.501649
 C        -2.685366         0.058041        -1.493236
 C        -2.032671        -0.963410        -2.363272
 C        -2.147434        -1.229329        -0.813921
 C        -0.746407        -1.343768        -0.087825
 C         0.070334        -0.059960        -0.020727
 O         1.292641        -0.035344         0.081550
 C        -0.826397         1.221772        -0.104714
 C        -1.924950         1.298032        -1.166182
 H        -4.662252        -0.283498        -1.252984
 H        -2.726033        -1.636918        -3.014390
 H        -1.125610        -0.689418        -2.886942
 H        -2.757230        -2.117797        -0.526653
 H        -0.886395        -1.494865         1.031842
 H        -0.112394        -2.224748        -0.387800
 H        -1.199200         1.362227         0.908301
 H        -0.065316         2.044924        -0.247851
 H        -2.537245         2.137709        -0.946824
 H        -1.432569         1.647768        -2.158345
