19
Iteration:  1566
 O        -4.075734         0.123326        -1.625313
 C        -2.649273         0.121133        -1.389990
 C        -2.028666        -0.939420        -2.417649
 C        -2.053472        -1.192216        -0.932004
 C        -0.837612        -1.200827        -0.055415
 C         0.027177        -0.091437        -0.029788
 O         1.200225        -0.185680         0.001623
 C        -0.650004         1.272650        -0.015517
 C        -1.892340         1.355277        -1.031107
 H        -4.292261         0.609353        -0.723343
 H        -2.780398        -1.499980        -3.006406
 H        -1.111778        -0.707899        -2.925959
 H        -2.870450        -1.845816        -0.545414
 H        -1.211570        -1.100121         1.009634
 H        -0.187075        -2.089981        -0.091404
 H        -0.893113         1.138444         1.039850
 H         0.060668         2.040203        -0.402096
 H        -2.751808         2.056445        -0.759741
 H        -1.505777         1.763706        -1.970999
