19
Iteration:  4527
 O        -4.105796         0.055715        -1.555168
 C        -2.708118         0.096209        -1.318124
 C        -1.986384        -0.640422        -2.459969
 C        -2.010516        -1.271224        -0.999260
 C        -0.807350        -1.294165        -0.077293
 C        -0.000055        -0.086862        -0.144037
 O         1.209987        -0.106550         0.321099
 C        -0.548362         1.188973        -0.714562
 C        -2.063781         1.333494        -0.608799
 H        -4.456193         0.379626        -0.731751
 H        -2.450169        -1.079178        -3.242133
 H        -1.003491        -0.201163        -2.628898
 H        -2.503188        -2.247328        -0.927082
 H        -1.093482        -1.318467         1.044175
 H        -0.131515        -2.251309        -0.144976
 H        -0.052781         2.011468        -0.079995
 H        -0.148678         1.297882        -1.689251
 H        -2.451777         1.413556         0.406345
 H        -2.448936         2.166404        -1.197835
