19
Iteration:  3936
 O        -3.904560         0.240668        -0.868276
 C        -2.575571         0.021459        -1.440165
 C        -2.507905        -1.112823        -2.358085
 C        -1.947328        -1.239204        -1.052694
 C        -0.386430        -1.199491        -0.838197
 C         0.014469         0.060627        -0.004293
 O         0.693426        -0.103818         0.939260
 C        -0.682114         1.386435        -0.444664
 C        -1.660742         1.219886        -1.627143
 H        -3.915655        -0.167067        -0.041732
 H        -3.489793        -1.339393        -2.581825
 H        -1.809149        -1.111802        -3.230612
 H        -2.373753        -1.899964        -0.286923
 H        -0.128818        -2.064080        -0.214552
 H         0.087412        -1.239404        -1.806493
 H        -1.154717         1.933934         0.381480
 H         0.159515         2.032718        -0.796936
 H        -2.469502         2.104400        -1.550383
 H        -1.156021         1.196443        -2.581749
