19
Iteration:  1750
 O        -3.985671         0.294601        -1.369659
 C        -2.555162         0.101074        -1.516802
 C        -2.278765        -1.096711        -2.493253
 C        -2.113811        -1.209754        -0.894940
 C        -0.737440        -1.342272        -0.071724
 C         0.007711        -0.023538         0.060992
 O         1.273219         0.023758         0.041819
 C        -0.900147         1.224368         0.086854
 C        -1.696608         1.294357        -1.284866
 H        -4.360457         0.456697        -2.183834
 H        -3.130676        -1.667731        -2.567651
 H        -1.408289        -1.068145        -3.132617
 H        -2.874513        -1.942850        -0.640192
 H        -1.048289        -1.678208         0.923117
 H        -0.092800        -2.106575        -0.535903
 H        -1.567073         1.177284         0.867318
 H        -0.225138         2.081397         0.316053
 H        -2.232136         2.213600        -1.208469
 H        -0.928012         1.355673        -2.022946
