19
Iteration:    71
 O        -4.015045         0.265834        -1.418182
 C        -2.677110         0.083497        -1.441942
 C        -1.850113        -0.875729        -2.254269
 C        -2.089480        -1.220143        -0.804331
 C        -0.878719        -1.332787         0.121421
 C         0.015295        -0.098035        -0.143687
 O         1.241263        -0.144469         0.003991
 C        -0.819656         1.175925        -0.240124
 C        -1.945095         1.399730        -1.327492
 H        -4.388299        -0.038163        -0.659479
 H        -2.091768        -1.531472        -3.198926
 H        -0.915080        -0.291455        -2.575343
 H        -2.913206        -1.990324        -0.729489
 H        -1.182093        -1.211499         1.167275
 H        -0.269543        -2.273778         0.043948
 H        -1.205559         1.308250         0.793763
 H        -0.123373         2.015133        -0.428772
 H        -2.693727         2.241673        -1.128243
 H        -1.460888         1.516025        -2.376999
