19
Iteration:  1434charge 0 multiplicity 1
 O        -3.983211         0.227483        -1.575477
 C        -2.595337         0.035624        -1.455037
 C        -1.824759        -0.869390        -2.342215
 C        -2.101296        -1.298227        -0.937851
 C        -0.995339        -1.265663         0.086499
 C         0.011529        -0.112819        -0.013660
 O         1.193831        -0.189375        -0.209859
 C        -0.671394         1.260900        -0.026365
 C        -2.027988         1.387183        -1.040477
 H        -4.368680         0.624387        -0.743041
 H        -2.402304        -1.334164        -3.092333
 H        -0.778630        -0.612486        -2.671267
 H        -2.747822        -2.136143        -0.778395
 H        -1.337152        -0.968372         1.149550
 H        -0.272257        -2.082797         0.258812
 H        -1.015234         1.571373         1.044748
 H         0.005418         2.140488        -0.271397
 H        -2.819809         1.910888        -0.411880
 H        -1.739633         1.891411        -1.991251
