19
Iteration:  4538charge 0 multiplicity 1
 O        -4.078205         0.155572        -1.533716
 C        -2.722133        -0.013321        -1.318172
 C        -2.000918        -0.567322        -2.462869
 C        -2.041271        -1.269499        -1.009215
 C        -0.830054        -1.275708        -0.067356
 C         0.124345        -0.077708        -0.102979
 O         1.187952        -0.034310         0.352666
 C        -0.547036         1.149283        -0.697089
 C        -2.050534         1.182510        -0.670549
 H        -4.629528         0.142853        -0.680230
 H        -2.586491        -1.075673        -3.136086
 H        -1.118752        -0.171568        -2.964373
 H        -2.600242        -2.213474        -1.041571
 H        -1.266067        -1.345282         0.976886
 H        -0.164119        -2.215530        -0.230041
 H        -0.070757         2.125456        -0.369285
 H        -0.403638         1.126832        -1.746355
 H        -2.387388         1.277166         0.354607
 H        -2.280216         2.145576        -1.122834
