19
Iteration:   530charge 0 multiplicity 1
 O        -3.955394         0.491551        -1.137809
 C        -2.671856         0.049017        -1.384224
 C        -2.300484        -1.018024        -2.401769
 C        -2.079914        -1.330076        -0.944919
 C        -0.654281        -1.412191        -0.367043
 C        -0.066208        -0.028646         0.056302
 O         1.119252         0.082007         0.371949
 C        -0.857388         1.264382        -0.160054
 C        -1.584012         1.161712        -1.461978
 H        -4.669030        -0.122894        -1.705309
 H        -2.998499        -1.575909        -2.965298
 H        -1.339857        -0.748973        -2.957637
 H        -2.787998        -2.115790        -0.483311
 H        -0.275559        -2.082789         0.414721
 H        -0.077696        -1.752269        -1.267688
 H        -1.544457         1.453686         0.740015
 H        -0.032359         2.020108        -0.193325
 H        -2.013960         2.063064        -1.974832
 H        -0.880500         0.746285        -2.159762
