19
Iteration:   151
 O        -4.011676         0.347116        -1.693491
 C        -2.671187         0.017709        -1.497200
 C        -2.079031        -1.087838        -2.267497
 C        -2.157946        -1.268349        -0.689973
 C        -0.812378        -1.310133         0.043982
 C         0.093013        -0.086243        -0.181154
 O         1.308597         0.005282        -0.034149
 C        -0.746935         1.205852        -0.127375
 C        -1.934779         1.323938        -1.074728
 H        -4.208861         1.188085        -1.164744
 H        -2.544251        -1.839084        -2.772731
 H        -1.079267        -0.887027        -2.558087
 H        -2.908514        -1.951955        -0.350649
 H        -0.965117        -1.249222         1.156820
 H        -0.312084        -2.248264        -0.090378
 H        -1.178962         1.233209         0.912393
 H         0.006440         2.000071        -0.282913
 H        -2.735706         1.974406        -0.462647
 H        -1.672538         1.878827        -2.036700
