19
Iteration:  3371
 O        -4.099599         0.324338        -1.354268
 C        -2.638549         0.043663        -1.369722
 C        -2.075649        -0.961733        -2.436591
 C        -2.055831        -1.306419        -0.966320
 C        -0.702970        -1.380099        -0.150727
 C         0.062317        -0.041321        -0.006963
 O         1.255392         0.012216         0.121411
 C        -0.899561         1.209153        -0.088558
 C        -1.837028         1.301682        -1.303138
 H        -4.512601         0.830388        -0.544539
 H        -2.664947        -1.662399        -3.073924
 H        -1.028808        -0.751010        -2.745615
 H        -2.937031        -1.920888        -0.678323
 H        -0.739896        -1.773837         0.925153
 H         0.046809        -2.072148        -0.567918
 H        -1.568332         1.108869         0.899960
 H        -0.318226         2.120982        -0.137992
 H        -2.428525         2.175662        -1.157805
 H        -1.137216         1.460932        -2.129948
