19
Iteration:  1205charge 0 multiplicity 1
 O        -3.986856         0.177672        -1.565801
 C        -2.616633         0.182022        -1.470225
 C        -2.100177        -0.979385        -2.349877
 C        -2.086527        -1.215362        -0.838801
 C        -0.830106        -1.321715        -0.028241
 C         0.008697        -0.077402        -0.041432
 O         1.256988        -0.086491        -0.055944
 C        -0.875410         1.205953         0.102471
 C        -1.734742         1.362315        -1.227895
 H        -4.314490         0.756907        -0.735124
 H        -2.880105        -1.524840        -2.873336
 H        -1.104716        -0.818753        -2.764675
 H        -2.918451        -1.838824        -0.476584
 H        -0.977218        -1.666693         0.995746
 H        -0.173917        -2.147884        -0.506569
 H        -1.574022         1.095810         0.901516
 H        -0.489528         2.245952         0.094980
 H        -2.393674         2.270146        -1.087216
 H        -1.233421         1.566081        -2.163670
