19
Iteration:  1757
 O        -3.973828         0.297242        -1.352945
 C        -2.607105         0.091794        -1.495811
 C        -2.218695        -1.068964        -2.478570
 C        -2.090271        -1.207593        -0.886742
 C        -0.748046        -1.313012        -0.104242
 C         0.049553        -0.042529         0.092999
 O         1.275815         0.002690         0.057356
 C        -0.944668         1.233353         0.004741
 C        -1.718842         1.262909        -1.248450
 H        -4.333040         0.717129        -2.202929
 H        -3.274942        -1.551978        -2.865347
 H        -1.307856        -1.157132        -3.164647
 H        -2.854599        -1.879348        -0.444017
 H        -0.957618        -1.714879         0.953196
 H        -0.144295        -2.137037        -0.537690
 H        -1.667601         1.146429         0.935967
 H        -0.209509         2.033782         0.112094
 H        -2.297461         2.198643        -1.308869
 H        -1.003754         1.357510        -2.146970
