19
Iteration:  3562
 O        -3.985104         0.325310        -1.152378
 C        -2.597163         0.004383        -1.457321
 C        -2.391921        -1.089504        -2.458940
 C        -1.980337        -1.351203        -1.015587
 C        -0.568263        -1.393320        -0.524262
 C         0.055145         0.037795        -0.090277
 O         1.081479         0.049028         0.549755
 C        -0.824980         1.340083        -0.088869
 C        -1.746566         1.267875        -1.403600
 H        -3.989507         0.908392        -0.437100
 H        -3.337410        -1.698387        -2.650099
 H        -1.643995        -0.941668        -3.227030
 H        -2.802616        -1.825310        -0.413846
 H        -0.469940        -1.892120         0.441518
 H         0.100188        -1.913629        -1.247828
 H        -1.566882         1.173372         0.737833
 H        -0.395726         2.376922         0.000754
 H        -2.388694         2.135048        -1.796960
 H        -0.961428         1.175860        -2.080229
