19
Iteration:  3977
 O        -3.997847         0.296944        -0.939010
 C        -2.646113         0.014560        -1.439279
 C        -2.527379        -1.128193        -2.450483
 C        -1.889772        -1.330726        -1.088195
 C        -0.460898        -1.250202        -0.810602
 C         0.022193         0.057778         0.092029
 O         0.906776         0.030580         0.888799
 C        -0.721518         1.292909        -0.352851
 C        -1.672756         1.170935        -1.549235
 H        -3.836714         0.781323        -0.022139
 H        -3.508722        -1.427160        -2.755656
 H        -1.983889        -1.036926        -3.464062
 H        -2.534499        -2.013999        -0.469340
 H        -0.138030        -2.051179        -0.177051
 H         0.241911        -1.284799        -1.684958
 H        -1.224177         1.706334         0.557903
 H         0.081154         2.099365        -0.625055
 H        -2.261586         2.133050        -1.624002
 H        -1.196901         1.205084        -2.507113
