19
Iteration:  1719charge 0 multiplicity 1
 O        -3.914182         0.402582        -1.349446
 C        -2.498186         0.040547        -1.453209
 C        -2.131124        -1.089060        -2.357379
 C        -2.200229        -1.263216        -0.877893
 C        -0.775191        -1.339363        -0.173566
 C        -0.035621        -0.009808        -0.012940
 O         1.171596         0.061660        -0.051403
 C        -0.958326         1.171369         0.118777
 C        -1.651107         1.275262        -1.236764
 H        -4.404542        -0.096588        -2.137673
 H        -2.865404        -1.498191        -2.953635
 H        -1.211984        -1.240815        -2.905885
 H        -2.976176        -1.934118        -0.524802
 H        -1.005807        -1.545584         0.843295
 H        -0.047752        -2.066202        -0.541966
 H        -1.742005         1.201989         0.861189
 H        -0.381442         2.145819         0.258435
 H        -2.169280         2.255410        -1.386435
 H        -0.875884         1.211671        -1.977810
