19
Iteration:  3588charge 0 multiplicity 1
 O        -4.010501         0.247806        -1.141269
 C        -2.597919         0.008050        -1.531881
 C        -2.446863        -1.090036        -2.445744
 C        -2.018830        -1.236933        -0.983481
 C        -0.573482        -1.205488        -0.564574
 C        -0.008751         0.007178         0.148010
 O         1.116717         0.010380         0.552556
 C        -0.786347         1.246126        -0.167256
 C        -1.660342         1.219356        -1.463037
 H        -4.055060         0.323781        -0.197257
 H        -3.405435        -1.541226        -2.594653
 H        -1.775794        -0.947073        -3.333400
 H        -2.730697        -1.788270        -0.383857
 H        -0.323867        -1.961897         0.167364
 H         0.138313        -1.440840        -1.345052
 H        -1.594527         1.496575         0.529491
 H        -0.252177         2.141362        -0.313014
 H        -2.294739         2.034255        -1.495465
 H        -0.860049         1.450917        -2.296067
