19
Iteration:   422charge 0 multiplicity 1
 O        -3.962735         0.485276        -1.359691
 C        -2.660475         0.006285        -1.397931
 C        -2.155291        -1.094942        -2.425740
 C        -2.078503        -1.373105        -0.895619
 C        -0.842833        -1.348571        -0.083168
 C        -0.031292         0.039645         0.013725
 O         1.184386         0.000105         0.031164
 C        -0.766803         1.300046        -0.022694
 C        -1.663794         1.249461        -1.330811
 H        -4.644111        -0.311797        -1.325034
 H        -2.816604        -1.777157        -2.961581
 H        -1.227490        -0.774908        -2.901922
 H        -2.767982        -2.203025        -0.557711
 H        -1.120982        -1.396826         0.966592
 H        -0.136079        -2.128943        -0.367218
 H        -1.470811         1.337707         0.779399
 H        -0.116800         2.152178         0.124681
 H        -2.368189         2.051628        -1.348698
 H        -1.048778         1.231359        -2.243125
