19
Iteration:  3559
 O        -3.993656         0.324761        -1.154462
 C        -2.589382         0.009490        -1.461128
 C        -2.378181        -1.083668        -2.455285
 C        -1.994934        -1.359404        -0.981366
 C        -0.561598        -1.401318        -0.541929
 C         0.036189         0.017932        -0.103429
 O         1.099767         0.066586         0.554052
 C        -0.850752         1.332818        -0.107184
 C        -1.737872         1.238174        -1.404252
 H        -3.937143         1.018106        -0.373509
 H        -3.273231        -1.552006        -2.629559
 H        -1.619227        -0.850396        -3.220207
 H        -2.853299        -1.818331        -0.514887
 H        -0.523575        -1.892504         0.513966
 H         0.113445        -1.909103        -1.262713
 H        -1.526377         1.202180         0.735406
 H        -0.436812         2.369200         0.005648
 H        -2.415223         2.135440        -1.715542
 H        -0.871666         1.265736        -2.059422
