19
Iteration:  2376charge 0 multiplicity 1
 O        -3.960153         0.287309        -1.353316
 C        -2.581665        -0.010464        -1.528883
 C        -1.998119        -0.965925        -2.427249
 C        -2.102013        -1.325968        -0.871478
 C        -0.840924        -1.301826         0.006320
 C        -0.059381        -0.056316        -0.052917
 O         1.137192        -0.049927        -0.090398
 C        -0.827221         1.286673         0.030165
 C        -1.740754         1.428961        -1.185317
 H        -4.324637        -0.609188        -1.369762
 H        -2.717597        -1.567144        -2.981426
 H        -1.009907        -0.756711        -2.931672
 H        -2.926883        -2.056196        -0.756273
 H        -1.282932        -1.303937         1.000960
 H        -0.161551        -2.156768        -0.106929
 H        -1.510242         1.354095         0.919201
 H        -0.088649         2.143723         0.046974
 H        -2.456771         2.258988        -1.172170
 H        -1.113393         1.517324        -2.000205
