19
Iteration:   832
 O        -3.883720         0.313987        -0.847304
 C        -2.620914         0.051904        -1.419177
 C        -2.669292        -1.196584        -2.286562
 C        -1.842494        -1.233329        -1.090490
 C        -0.351716        -1.136825        -1.002983
 C        -0.044395         0.010166         0.024864
 O         0.488354        -0.088888         1.134722
 C        -0.559239         1.285010        -0.503306
 C        -1.524787         1.211664        -1.736081
 H        -3.844159         0.739398        -0.067371
 H        -3.639970        -1.627389        -2.184913
 H        -2.382458        -1.418624        -3.288041
 H        -2.112099        -1.922545        -0.273392
 H         0.099190        -2.060716        -0.621325
 H         0.160280        -0.714020        -1.913757
 H        -0.732597         1.777554         0.473299
 H         0.439136         1.800001        -0.805150
 H        -2.031816         2.209460        -1.901443
 H        -0.863893         0.988301        -2.602100
