19
Iteration:  1336charge 0 multiplicity 1
 O        -3.895033         0.360298        -1.792676
 C        -2.558283         0.029653        -1.364812
 C        -1.874443        -0.993747        -2.234435
 C        -2.069298        -1.262973        -0.859347
 C        -0.857534        -1.345357         0.207062
 C        -0.061008        -0.058370        -0.098606
 O         1.100725        -0.130794        -0.380732
 C        -0.779820         1.288332         0.062328
 C        -1.984595         1.328183        -0.949449
 H        -4.368575         0.743018        -1.118338
 H        -2.516000        -1.635009        -2.856887
 H        -0.932021        -0.768769        -2.714618
 H        -2.837243        -1.959238        -0.618820
 H        -1.241960        -1.284099         1.263882
 H        -0.303413        -2.269150         0.012952
 H        -1.030466         1.233884         1.171513
 H         0.066893         2.041583         0.006191
 H        -2.892385         1.878828        -0.493194
 H        -1.576289         1.795341        -1.859997
