19
Iteration:   138
 O        -4.064081         0.305419        -1.710149
 C        -2.643158         0.030217        -1.486378
 C        -2.109942        -1.192960        -2.270047
 C        -2.177628        -1.303355        -0.802914
 C        -0.776551        -1.194320         0.081997
 C         0.107729         0.034453        -0.117519
 O         1.295309        -0.105898        -0.022792
 C        -0.672590         1.254062        -0.138263
 C        -1.924363         1.322698        -1.038773
 H        -4.241609         1.171438        -1.143603
 H        -2.949998        -1.545230        -2.906451
 H        -1.197478        -1.204688        -2.843875
 H        -2.953376        -1.911297        -0.386868
 H        -0.963855        -1.256553         1.158531
 H        -0.063025        -1.955643        -0.225758
 H        -0.982671         1.106549         0.922030
 H        -0.142119         2.231626        -0.049241
 H        -2.717526         1.931466        -0.477952
 H        -1.687841         2.100821        -1.875051
