19
Iteration:  4282
 O        -3.988491         0.220762        -1.659998
 C        -2.539177         0.078616        -1.419597
 C        -1.884514        -0.884579        -2.280903
 C        -2.075431        -1.303509        -0.721156
 C        -0.772842        -1.290101         0.096735
 C        -0.047423        -0.008294        -0.142348
 O         1.141875        -0.046850        -0.452282
 C        -0.935043         1.132818         0.212648
 C        -1.877294         1.319130        -1.035281
 H        -4.458910         0.576054        -0.847931
 H        -2.451424        -1.300355        -3.133476
 H        -0.805872        -0.741577        -2.544514
 H        -2.928093        -1.922252        -0.517576
 H        -1.088025        -1.502802         1.206362
 H        -0.041789        -2.046871        -0.264679
 H        -1.419195         0.971879         1.179892
 H        -0.388851         2.124848         0.268501
 H        -2.571909         2.093479        -0.927815
 H        -1.281718         1.710977        -1.969099
