19
Iteration:  4663
 O        -4.089459         0.146348        -1.174390
 C        -2.688833         0.073421        -1.382502
 C        -2.276504        -0.839020        -2.558746
 C        -1.961924        -1.346883        -1.177283
 C        -0.627849        -1.339442        -0.494519
 C         0.043585        -0.035171        -0.053268
 O         0.971288        -0.004823         0.849951
 C        -0.405747         1.275378        -0.758182
 C        -1.926184         1.299110        -0.902881
 H        -4.269153         0.815127        -0.388272
 H        -3.197275        -1.385493        -3.010367
 H        -1.438443        -0.424431        -3.239728
 H        -2.592657        -2.208534        -1.046453
 H        -0.834086        -1.785118         0.588450
 H         0.233850        -1.864886        -1.099426
 H         0.064691         2.077753        -0.243201
 H        -0.048645         1.164270        -1.785924
 H        -2.300718         1.511796         0.137792
 H        -2.177883         2.060889        -1.563484
