19
Iteration:  2309
 O        -3.894288         0.406542        -1.557485
 C        -2.522811        -0.000191        -1.406489
 C        -1.998680        -1.038087        -2.360849
 C        -2.146705        -1.290146        -0.762119
 C        -0.863490        -1.373078         0.020656
 C        -0.079947        -0.060537         0.019380
 O         1.140457         0.108709        -0.296910
 C        -0.890872         1.176744         0.089638
 C        -1.708242         1.329386        -1.143960
 H        -4.556245        -0.359871        -1.513715
 H        -2.813412        -1.462798        -2.892266
 H        -0.997690        -0.912335        -2.867745
 H        -2.902558        -2.082403        -0.493196
 H        -1.014364        -1.410613         1.117256
 H        -0.273043        -2.218095        -0.353136
 H        -1.633351         0.944243         0.993251
 H        -0.266614         2.025082         0.368910
 H        -2.496238         2.167144        -1.017938
 H        -1.013428         1.429538        -1.960456
