19
Iteration:  3415charge 0 multiplicity 1
 O        -3.941837         0.177800        -1.282398
 C        -2.590484         0.064500        -1.422983
 C        -2.292445        -1.053242        -2.477345
 C        -2.094006        -1.323399        -1.060584
 C        -0.764597        -1.275992        -0.274989
 C         0.036375         0.035533        -0.086315
 O         1.214873         0.007841         0.268079
 C        -0.858118         1.299189        -0.020233
 C        -1.670341         1.309794        -1.281761
 H        -4.182645         0.115561        -0.276298
 H        -3.273034        -1.085450        -3.074771
 H        -1.409555        -0.752623        -2.955181
 H        -2.891315        -1.813030        -0.484887
 H        -1.105568        -1.481871         0.816371
 H        -0.063066        -2.101047        -0.515901
 H        -1.532220         1.314140         0.931746
 H        -0.132719         2.085594         0.091175
 H        -2.286339         2.165241        -1.364115
 H        -1.244433         1.184102        -2.247071
