19
Iteration:   846
 O        -3.913587         0.280429        -0.855181
 C        -2.609190         0.047609        -1.486372
 C        -2.762797        -1.152814        -2.367810
 C        -1.841913        -1.178178        -1.034597
 C        -0.243881        -1.123956        -0.945794
 C        -0.023596        -0.032493         0.056925
 O         0.501872        -0.101427         1.111031
 C        -0.486298         1.340660        -0.473371
 C        -1.579280         1.114497        -1.681681
 H        -3.659878         0.715227         0.110293
 H        -3.593110        -1.789338        -2.245135
 H        -2.190768        -0.909485        -3.276104
 H        -2.423969        -1.597677        -0.255714
 H         0.044019        -2.081915        -0.542899
 H         0.163865        -0.997059        -1.992317
 H        -1.035352         2.050144         0.126763
 H         0.395953         1.870529        -0.906665
 H        -1.990561         2.155520        -1.991258
 H        -1.144128         0.809320        -2.675694
