19
Iteration:  4446
 O        -4.051706         0.233018        -1.638259
 C        -2.671803         0.001245        -1.391425
 C        -1.970223        -0.816514        -2.395433
 C        -2.102958        -1.292962        -0.921985
 C        -0.861694        -1.259740         0.088251
 C         0.091842        -0.062476        -0.109130
 O         1.340238        -0.076036        -0.106659
 C        -0.674813         1.204074        -0.175917
 C        -2.072375         1.276613        -0.821622
 H        -4.700135        -0.079293        -1.066833
 H        -2.543745        -1.315507        -3.286295
 H        -0.940083        -0.376108        -2.676112
 H        -2.757444        -2.088589        -0.555260
 H        -1.271811        -1.208446         1.113496
 H        -0.174385        -2.054540        -0.091864
 H        -0.770999         1.569003         0.883248
 H         0.039341         2.002700        -0.629664
 H        -2.790402         1.634195        -0.158490
 H        -2.118684         2.075318        -1.702229
