19
Iteration:  3918
 O        -3.812741         0.331646        -0.844358
 C        -2.567373        -0.009511        -1.471983
 C        -2.633541        -1.231480        -2.481829
 C        -1.850462        -1.274727        -1.027490
 C        -0.346680        -1.204351        -0.834047
 C        -0.028798         0.020201         0.016248
 O         0.623119        -0.084584         0.968471
 C        -0.623220         1.409326        -0.479457
 C        -1.771812         1.339316        -1.585173
 H        -3.837964        -0.077216        -0.012765
 H        -3.354475        -2.095260        -2.281432
 H        -2.035678        -1.056773        -3.340506
 H        -2.344793        -1.928466        -0.309727
 H         0.078608        -2.164022        -0.369110
 H         0.077700        -1.115807        -1.874006
 H        -1.011880         1.606512         0.530855
 H         0.152218         2.105563        -0.625384
 H        -2.256203         2.217057        -1.534714
 H        -1.150707         1.254756        -2.562644
