19
Iteration:    93
 O        -4.100390         0.162548        -1.584675
 C        -2.600051         0.074323        -1.375081
 C        -1.942821        -0.959387        -2.247345
 C        -2.116416        -1.225328        -0.771198
 C        -0.894606        -1.333258         0.051321
 C        -0.014879        -0.049471        -0.084951
 O         1.185701        -0.080184        -0.031774
 C        -0.666881         1.267084        -0.242990
 C        -1.797626         1.425425        -1.179202
 H        -4.500220         0.082242        -0.600042
 H        -2.660498        -1.322353        -3.100118
 H        -0.890359        -0.980797        -2.654581
 H        -2.943584        -1.903209        -0.449183
 H        -1.127662        -1.582802         1.085742
 H        -0.312284        -2.168840        -0.414514
 H        -1.105091         1.456440         0.756086
 H         0.133751         2.049053        -0.310219
 H        -2.536487         2.181196        -0.788669
 H        -1.585863         1.755000        -2.277780
