19
Iteration:  3517charge 0 multiplicity 1
 O        -4.045882         0.277998        -1.182216
 C        -2.647285         0.056877        -1.544397
 C        -2.330255        -1.116172        -2.454799
 C        -2.033215        -1.213737        -0.970652
 C        -0.597047        -1.348896        -0.429228
 C        -0.008174         0.033278         0.080668
 O         1.212839         0.013500         0.386274
 C        -0.942039         1.278331        -0.035763
 C        -1.613236         1.259053        -1.408137
 H        -4.041086         0.589415        -0.299845
 H        -3.222735        -1.591675        -2.766741
 H        -1.608462        -0.882760        -3.294609
 H        -2.665397        -1.959340        -0.491548
 H        -0.470830        -2.226304         0.266609
 H         0.056982        -1.656119        -1.285316
 H        -1.712220         1.275959         0.848893
 H        -0.279493         2.222280        -0.088662
 H        -2.282916         2.197398        -1.582459
 H        -0.954056         1.264216        -2.206051
