19
Iteration:   527charge 0 multiplicity 1
 O        -3.970264         0.485576        -1.141525
 C        -2.685353         0.043884        -1.424032
 C        -2.295500        -1.029071        -2.377431
 C        -2.098261        -1.349077        -0.961538
 C        -0.642269        -1.395165        -0.345599
 C        -0.069376        -0.029624         0.055762
 O         1.117416         0.082206         0.362922
 C        -0.824709         1.245027        -0.157165
 C        -1.585098         1.193323        -1.436524
 H        -4.544877        -0.000222        -1.722684
 H        -3.042479        -1.540284        -2.962274
 H        -1.394963        -0.882501        -2.981655
 H        -2.737155        -2.059970        -0.456220
 H        -0.243078        -2.095211         0.399201
 H        -0.033022        -1.737613        -1.213193
 H        -1.542945         1.389194         0.688995
 H        -0.045732         2.058378        -0.137670
 H        -2.053685         2.073538        -1.965318
 H        -0.878582         0.852825        -2.203822
