19
Iteration:  3313
 O        -3.958065         0.216493        -1.608322
 C        -2.590337         0.082703        -1.512317
 C        -2.174395        -1.073822        -2.354712
 C        -2.086721        -1.207258        -0.847114
 C        -0.770376        -1.334149        -0.060378
 C         0.089454        -0.071208         0.035599
 O         1.263072        -0.044720        -0.163440
 C        -0.860432         1.316129         0.190200
 C        -1.878684         1.335777        -1.110739
 H        -4.471676         0.398848        -0.881373
 H        -3.031037        -1.631751        -2.842373
 H        -1.287077        -0.870388        -3.010547
 H        -2.942777        -1.819058        -0.645346
 H        -0.758335        -1.545370         1.053729
 H        -0.082533        -2.014702        -0.605773
 H        -1.327536         1.376281         1.205889
 H        -0.239911         2.247735         0.140854
 H        -2.660387         1.999483        -0.943446
 H        -1.375783         1.807519        -2.023421
