19
Iteration:  3127
 O        -3.998630         0.087937        -1.756047
 C        -2.645392         0.086346        -1.426547
 C        -1.901639        -0.889359        -2.248662
 C        -2.162155        -1.281023        -0.829765
 C        -0.920658        -1.260484         0.072224
 C         0.003176        -0.099266        -0.091361
 O         1.234228        -0.084387        -0.306489
 C        -0.656987         1.239883        -0.038380
 C        -1.931505         1.404745        -0.834493
 H        -4.402312         0.482404        -0.999042
 H        -2.497763        -1.195239        -3.085996
 H        -0.801421        -0.580837        -2.408343
 H        -2.852606        -2.082953        -0.733211
 H        -1.413407        -0.945452         1.053877
 H        -0.361154        -2.203122         0.281187
 H        -1.029386         1.194720         1.052245
 H         0.129565         2.060108        -0.112273
 H        -2.740707         1.954195        -0.320254
 H        -1.777363         2.115813        -1.792147
