19
Iteration:  4206
 O        -4.059668         0.206210        -1.411762
 C        -2.595761         0.056605        -1.444353
 C        -2.010348        -0.970737        -2.356747
 C        -2.075737        -1.266787        -0.836603
 C        -0.703640        -1.318497        -0.135103
 C         0.028674        -0.007497        -0.106422
 O         1.174289        -0.064075         0.020655
 C        -0.858588         1.265013        -0.027599
 C        -1.839426         1.374371        -1.188155
 H        -4.335529        -0.020072        -0.519519
 H        -2.926280        -1.278424        -3.007233
 H        -1.151281        -0.690037        -2.927665
 H        -2.947935        -1.903044        -0.630752
 H        -0.785349        -1.739884         0.866483
 H        -0.188632        -1.981177        -0.859763
 H        -1.352186         1.020826         0.905778
 H        -0.285580         2.234583         0.116562
 H        -2.521357         2.231575        -1.157097
 H        -1.242669         1.540192        -2.191142
