19
Iteration:   924
 O        -3.839799         0.327043        -0.865128
 C        -2.616664         0.043256        -1.491623
 C        -2.651711        -1.106374        -2.449236
 C        -1.930642        -1.237578        -1.089880
 C        -0.444750        -1.258704        -0.711130
 C        -0.017441        -0.011460         0.103496
 O         0.772927        -0.036280         0.988619
 C        -0.646783         1.336763        -0.459930
 C        -1.577098         1.188375        -1.738424
 H        -3.828634         0.144880         0.100523
 H        -3.604588        -1.765195        -2.642492
 H        -2.057595        -1.103088        -3.374718
 H        -2.466879        -1.971221        -0.447113
 H        -0.281721        -2.069015         0.029337
 H         0.136791        -1.310015        -1.641737
 H        -1.476071         1.583865         0.218604
 H        -0.141918         2.304203        -0.499898
 H        -2.041985         2.215344        -1.659940
 H        -1.115902         1.148939        -2.773932
