19
Iteration:  3226
 O        -3.955288         0.126838        -1.666376
 C        -2.570039         0.082876        -1.417657
 C        -1.920949        -0.959350        -2.375507
 C        -2.113418        -1.256588        -0.896887
 C        -0.880342        -1.269562         0.133977
 C        -0.023265        -0.031237        -0.062846
 O         1.158708        -0.172382        -0.409900
 C        -0.783469         1.386915         0.164950
 C        -1.858672         1.405582        -0.926358
 H        -4.300194        -0.088238        -0.776995
 H        -2.667202        -1.507950        -3.130999
 H        -0.933091        -0.675172        -2.643866
 H        -2.784187        -1.992958        -0.508181
 H        -1.295535        -1.113516         1.187110
 H        -0.463821        -2.303253         0.180367
 H        -1.345752         1.191369         1.168233
 H        -0.193071         2.356171         0.212219
 H        -2.652108         2.075069        -0.811338
 H        -1.375440         1.757116        -1.920853
