19
Iteration:  1273charge 0 multiplicity 1
 O        -3.967712         0.166787        -1.649362
 C        -2.566776         0.132262        -1.462393
 C        -1.957409        -0.927605        -2.290820
 C        -2.115598        -1.201138        -0.832016
 C        -0.891131        -1.267238         0.131336
 C        -0.001573        -0.052437        -0.037317
 O         1.185463        -0.170886        -0.354761
 C        -0.867222         1.208885         0.138687
 C        -1.770668         1.410080        -1.109750
 H        -4.344185         0.084534        -0.834759
 H        -2.532956        -1.459715        -3.053863
 H        -0.917314        -0.756837        -2.491199
 H        -3.052582        -1.674831        -0.704794
 H        -1.214792        -1.401909         1.154291
 H        -0.206956        -2.133081         0.116295
 H        -1.574781         1.178473         0.942429
 H        -0.200286         1.996109         0.440754
 H        -2.660918         1.994133        -0.815403
 H        -1.292140         1.879111        -1.966885
