19
Iteration:  4277charge 0 multiplicity 1
 O        -4.006796         0.240765        -1.651609
 C        -2.570472         0.043699        -1.403342
 C        -1.886027        -0.896099        -2.306927
 C        -2.060248        -1.298583        -0.718894
 C        -0.768604        -1.306757         0.066619
 C        -0.070684         0.008120        -0.080838
 O         1.195104        -0.043715        -0.449573
 C        -0.931619         1.135714         0.216471
 C        -1.864550         1.301460        -1.096981
 H        -4.324773         0.597912        -0.839083
 H        -2.541851        -1.224849        -3.167340
 H        -0.914605        -0.621153        -2.662782
 H        -2.909865        -1.989272        -0.454475
 H        -1.167539        -1.235196         1.083879
 H        -0.054831        -2.117019        -0.081389
 H        -1.474602         0.961515         1.191368
 H        -0.355987         2.005828         0.330587
 H        -2.698173         2.108070        -0.891938
 H        -1.303865         1.783843        -1.830282
