19
Iteration:   202
 O        -4.042587         0.076333        -1.555752
 C        -2.554389         0.074923        -1.427766
 C        -1.918822        -1.005612        -2.264311
 C        -2.123137        -1.145682        -0.835269
 C        -0.919520        -1.224467         0.059957
 C        -0.028053         0.001933        -0.058350
 O         1.162013        -0.272674        -0.214162
 C        -0.744258         1.400459         0.018311
 C        -1.784961         1.422712        -1.179714
 H        -4.510026        -0.076021        -0.609234
 H        -2.677532        -1.459862        -2.904776
 H        -0.916583        -0.838034        -2.734955
 H        -2.930242        -1.800353        -0.623571
 H        -1.276626        -1.171348         1.095874
 H        -0.328859        -2.174025        -0.048999
 H        -1.285619         1.524764         0.927545
 H         0.097748         2.112467        -0.084050
 H        -2.496176         2.250745        -1.159301
 H        -1.270927         1.750303        -2.109829
