19
Iteration:  4164
 O        -4.079420         0.256612        -1.368027
 C        -2.671219        -0.015887        -1.431310
 C        -2.284263        -0.999640        -2.527144
 C        -2.076787        -1.301028        -0.972238
 C        -0.720247        -1.369899        -0.219927
 C         0.138067         0.032599        -0.055927
 O         1.279172         0.078170         0.291017
 C        -0.764626         1.255255        -0.091996
 C        -1.784217         1.281890        -1.217423
 H        -4.312430         0.443339        -0.348024
 H        -3.326132        -1.427760        -2.857058
 H        -1.428467        -0.864153        -3.138214
 H        -2.746664        -2.106152        -0.643166
 H        -0.754308        -1.830418         0.744303
 H         0.105742        -2.015431        -0.681258
 H        -1.309251         1.235715         0.861103
 H        -0.079275         2.200381        -0.045074
 H        -2.519204         2.160728        -1.081995
 H        -1.425639         1.529593        -2.184282
