19
Iteration:  4043
 O        -3.925222         0.351288        -1.064821
 C        -2.602376         0.015106        -1.502690
 C        -2.435944        -1.117404        -2.449506
 C        -2.020603        -1.255085        -0.922920
 C        -0.517592        -1.268079        -0.658682
 C        -0.064083         0.033096         0.014610
 O         1.055086         0.066171         0.606365
 C        -0.925949         1.269537        -0.121783
 C        -1.594882         1.107247        -1.501855
 H        -3.879839         0.248948        -0.145511
 H        -3.379553        -1.567447        -2.574172
 H        -1.807023        -0.797755        -3.349994
 H        -2.620043        -1.876119        -0.226970
 H        -0.065373        -2.193114        -0.385334
 H        -0.139465        -1.256066        -1.727989
 H        -1.713572         1.288761         0.655824
 H        -0.290622         2.231469        -0.005517
 H        -2.017350         2.092305        -1.798699
 H        -0.795627         1.020656        -2.164116
