19
Iteration:  1192charge 0 multiplicity 1
 O        -4.042036         0.204255        -1.541048
 C        -2.570668         0.110950        -1.559561
 C        -2.173001        -0.996670        -2.321622
 C        -2.066879        -1.123455        -0.814284
 C        -0.705624        -1.390168        -0.100897
 C         0.001228        -0.046246        -0.005507
 O         1.237365        -0.079746         0.007599
 C        -0.889352         1.179038         0.019826
 C        -1.775965         1.379411        -1.226364
 H        -4.356062         0.643840        -0.828602
 H        -2.843929        -1.482534        -2.935112
 H        -1.211287        -0.873178        -2.914064
 H        -2.960804        -1.523777        -0.276836
 H        -1.080885        -1.393626         0.914858
 H        -0.092678        -2.207638        -0.391599
 H        -1.486757         0.962289         0.850243
 H        -0.094226         1.863371         0.417589
 H        -2.415893         2.264201        -1.093546
 H        -0.980690         1.675072        -1.919457
