19
Iteration:   627charge 0 multiplicity 1
 O        -4.019758         0.425428        -1.129832
 C        -2.686002        -0.002070        -1.418019
 C        -2.418310        -1.126415        -2.338787
 C        -2.053277        -1.320553        -0.941223
 C        -0.520340        -1.275813        -0.717269
 C        -0.012386         0.076740         0.057632
 O         0.983654        -0.049613         0.738184
 C        -0.736002         1.325178        -0.227725
 C        -1.533494         1.112147        -1.573573
 H        -3.871641         1.191270        -0.491442
 H        -3.371143        -1.570300        -2.543999
 H        -1.618637        -1.063622        -3.043241
 H        -2.672686        -2.089540        -0.380444
 H        -0.120321        -2.217526        -0.342417
 H        -0.044507        -1.174088        -1.715872
 H        -1.545687         1.593409         0.464293
 H        -0.148374         2.235043        -0.383513
 H        -2.088887         2.075469        -1.709179
 H        -0.994597         0.815435        -2.444825
