19
Iteration:  2451charge 0 multiplicity 1
 O        -3.991726         0.261797        -1.482361
 C        -2.656980         0.055957        -1.396993
 C        -2.158110        -1.022528        -2.362048
 C        -2.166217        -1.247250        -0.839457
 C        -0.734372        -1.294691        -0.217560
 C         0.090327        -0.012055        -0.069957
 O         1.269573        -0.083726         0.217779
 C        -0.749372         1.275398        -0.125279
 C        -1.896091         1.371655        -1.177467
 H        -4.331149        -0.596169        -1.801409
 H        -2.974614        -1.339906        -3.035720
 H        -1.186404        -1.051707        -2.815423
 H        -2.893114        -2.006916        -0.513565
 H        -0.883108        -1.474731         0.863196
 H        -0.165749        -2.084198        -0.701451
 H        -1.156096         1.497928         0.892178
 H        -0.077537         2.148445        -0.271513
 H        -2.654210         2.129897        -0.794407
 H        -1.432035         1.692794        -2.117157
