19
Iteration:  1596charge 0 multiplicity 1
 O        -4.032471         0.266396        -1.529351
 C        -2.595942         0.134734        -1.426035
 C        -1.919495        -0.842015        -2.264817
 C        -2.145145        -1.286901        -0.882925
 C        -0.864039        -1.385255        -0.005118
 C        -0.038735        -0.097378        -0.001122
 O         1.240578        -0.092534        -0.041318
 C        -0.788869         1.197180        -0.156405
 C        -1.861144         1.351785        -1.189082
 H        -4.262653        -0.065956        -0.533827
 H        -2.537421        -1.194841        -3.199043
 H        -1.006671        -0.503871        -2.693748
 H        -2.919749        -2.081983        -0.744751
 H        -1.088604        -1.451994         1.038007
 H        -0.131192        -2.180218        -0.239549
 H        -1.301985         1.073309         0.880092
 H        -0.128827         2.127181        -0.187971
 H        -2.513832         2.084353        -0.781754
 H        -1.440585         1.823743        -2.111106
