19
Iteration:  4444charge 0 multiplicity 1
 O        -4.053670         0.221973        -1.639537
 C        -2.656993         0.006143        -1.397684
 C        -1.982729        -0.821357        -2.370332
 C        -2.098634        -1.291689        -0.926274
 C        -0.859940        -1.235574         0.083020
 C         0.115842        -0.055930        -0.109929
 O         1.316641        -0.088156        -0.117157
 C        -0.702888         1.200274        -0.165922
 C        -2.043549         1.274039        -0.831982
 H        -4.756190        -0.089534        -1.074290
 H        -2.502163        -1.220773        -3.270329
 H        -0.868071        -0.435789        -2.624526
 H        -2.755962        -2.069863        -0.569828
 H        -1.265229        -1.214639         1.047193
 H        -0.211038        -2.002010        -0.105130
 H        -0.812896         1.545402         0.844079
 H         0.025139         1.990650        -0.601545
 H        -2.769955         1.652715        -0.095846
 H        -2.101098         2.064459        -1.630063
