19
Iteration:  4757charge 0 multiplicity 1
 O        -4.010036         0.204589        -0.946000
 C        -2.624677         0.019971        -1.297873
 C        -2.321057        -0.692044        -2.627781
 C        -1.945840        -1.255392        -1.268608
 C        -0.525058        -1.392653        -0.558125
 C         0.070703        -0.101875        -0.073554
 O         0.698519         0.058707         1.003089
 C        -0.310543         1.153088        -0.957827
 C        -1.901433         1.296563        -0.908940
 H        -4.468620        -0.570531        -1.188248
 H        -3.234573        -1.161619        -3.112718
 H        -1.553212        -0.262910        -3.274155
 H        -2.595183        -2.110728        -0.952033
 H        -0.812361        -1.908273         0.293404
 H         0.179760        -1.942722        -1.132783
 H         0.146991         2.105617        -0.505894
 H         0.090227         0.952456        -2.021518
 H        -2.268305         1.473961         0.121423
 H        -2.378641         2.164998        -1.580963
