19
Iteration:  4246
 O        -4.016973         0.186243        -1.535594
 C        -2.592132         0.059122        -1.425901
 C        -1.994742        -0.963920        -2.425307
 C        -2.042563        -1.281400        -0.894906
 C        -0.888359        -1.394350         0.077171
 C         0.012723         0.052606        -0.072454
 O         1.170922         0.060344        -0.263736
 C        -0.817089         1.195202         0.113622
 C        -1.827693         1.321765        -1.072603
 H        -4.251959         0.575101        -0.634971
 H        -2.852610        -1.530434        -2.948181
 H        -1.085957        -0.831504        -2.987347
 H        -2.867818        -1.974007        -0.591177
 H        -1.258375        -1.591679         1.148639
 H        -0.051671        -2.020595        -0.144304
 H        -1.220004         1.088700         1.177377
 H        -0.105450         1.982223         0.032697
 H        -2.493632         2.111091        -0.893167
 H        -1.041211         1.656948        -1.786183
