19
Iteration:  1215charge 0 multiplicity 1
 O        -4.011599         0.239226        -1.568804
 C        -2.550764         0.035322        -1.361886
 C        -2.000274        -0.975913        -2.352740
 C        -2.201589        -1.258091        -0.858199
 C        -0.888109        -1.306242        -0.030375
 C         0.024528        -0.035443        -0.008237
 O         1.248418        -0.067267        -0.111756
 C        -0.869264         1.241995         0.054679
 C        -1.746515         1.367355        -1.198625
 H        -4.454289         0.708610        -0.722243
 H        -2.731038        -1.508930        -2.929396
 H        -1.053573        -0.868896        -2.901457
 H        -2.901459        -2.089427        -0.761151
 H        -1.085857        -1.565229         0.992260
 H        -0.177013        -1.962375        -0.505647
 H        -1.551653         1.185014         0.855062
 H        -0.101939         2.013192         0.280413
 H        -2.423830         2.247421        -1.123194
 H        -1.084780         1.538270        -2.041109
