19
Iteration:  2668charge 0 multiplicity 1
 O        -4.025608         0.416390        -1.244849
 C        -2.669399         0.060109        -1.518030
 C        -2.088273        -0.992832        -2.416567
 C        -2.104775        -1.307312        -0.847845
 C        -0.641673        -1.355163        -0.275163
 C         0.014181        -0.009871        -0.033265
 O         1.172458         0.000602         0.274471
 C        -0.880154         1.175293        -0.120809
 C        -1.711470         1.264541        -1.367361
 H        -4.561073        -0.445107        -1.064175
 H        -2.894390        -1.531745        -3.002358
 H        -1.297664        -0.747430        -3.076868
 H        -2.973035        -1.836322        -0.398123
 H        -0.665657        -1.676596         0.810628
 H        -0.173131        -2.102540        -0.906966
 H        -1.509257         1.242452         0.820033
 H        -0.273863         2.064875        -0.043572
 H        -2.421317         2.109180        -1.127315
 H        -1.160393         1.522349        -2.325965
