19
Iteration:  3530charge 0 multiplicity 1
 O        -4.002826         0.310672        -1.172080
 C        -2.619436         0.039288        -1.439261
 C        -2.338946        -1.049565        -2.471926
 C        -1.986149        -1.274713        -0.996142
 C        -0.616213        -1.332919        -0.425564
 C        -0.012086        -0.081107         0.089407
 O         1.137603         0.106117         0.401028
 C        -0.831898         1.216388        -0.132544
 C        -1.753611         1.246495        -1.446785
 H        -4.037335         0.912168        -0.336035
 H        -3.067058        -1.871348        -2.851057
 H        -1.469809        -0.840343        -3.136739
 H        -2.889604        -1.709975        -0.487188
 H        -0.480990        -2.153979         0.225098
 H         0.118482        -1.382270        -1.262686
 H        -1.585805         1.064910         0.789218
 H        -0.224741         2.084703         0.301305
 H        -2.234688         2.247275        -1.605143
 H        -0.951723         1.096045        -2.210575
