19
Iteration:  1250charge 0 multiplicity 1
 O        -3.933763         0.359761        -1.602393
 C        -2.590708         0.015626        -1.401722
 C        -1.910923        -0.989764        -2.384873
 C        -2.084879        -1.303490        -0.857335
 C        -0.878705        -1.331861         0.108878
 C        -0.054689        -0.046514        -0.002158
 O         1.151002        -0.054192        -0.272699
 C        -0.867682         1.215416         0.054678
 C        -1.803692         1.386659        -1.081800
 H        -4.422872         0.219709        -0.692586
 H        -2.740161        -1.570845        -2.882243
 H        -1.002663        -0.849025        -2.889656
 H        -2.851806        -2.041841        -0.833034
 H        -1.127263        -1.470701         1.151537
 H        -0.379878        -2.283240        -0.053184
 H        -1.261195         1.352238         1.050310
 H        -0.038582         1.926747         0.015176
 H        -2.671773         2.056056        -0.959182
 H        -1.243534         1.702335        -1.952315
