19
Iteration:  4891
 O        -4.037306         0.166923        -1.071086
 C        -2.637493         0.054147        -1.325238
 C        -2.209089        -0.673771        -2.592592
 C        -2.011153        -1.324241        -1.166110
 C        -0.600110        -1.405871        -0.433348
 C         0.094699        -0.111361        -0.172473
 O         0.797528         0.026335         0.806989
 C        -0.390349         1.220143        -0.825450
 C        -1.946297         1.254012        -0.818460
 H        -4.346911         1.005058        -1.431817
 H        -3.051407        -1.067033        -3.188130
 H        -1.202080        -0.382976        -3.084560
 H        -2.652374        -2.172825        -0.944642
 H        -0.566324        -2.029934         0.504289
 H         0.081896        -1.950844        -1.109057
 H         0.027318         2.057632        -0.334574
 H        -0.001306         1.192450        -1.924550
 H        -2.280542         1.129409         0.191764
 H        -2.350181         2.245039        -1.212212
