19
Iteration:  3101charge 0 multiplicity 1
 O        -4.028575         0.307416        -1.669181
 C        -2.612831        -0.025604        -1.458618
 C        -1.867189        -0.874635        -2.391947
 C        -2.011901        -1.235360        -0.833603
 C        -0.842453        -1.259610         0.181477
 C         0.038087        -0.070887        -0.057520
 O         1.208176        -0.228085        -0.250053
 C        -0.806290         1.347148        -0.097518
 C        -2.038220         1.322381        -0.858243
 H        -4.469409         0.011350        -0.839335
 H        -2.590970        -1.412447        -3.067118
 H        -0.922144        -0.645845        -2.732153
 H        -2.619442        -2.218928        -0.720217
 H        -1.184649        -1.333910         1.248411
 H        -0.160945        -2.130117        -0.063204
 H        -0.987222         1.491759         1.010347
 H        -0.113294         2.111881        -0.386668
 H        -2.899535         1.878512        -0.584565
 H        -1.796210         1.813617        -1.786242
