19
Iteration:  3970charge 0 multiplicity 1
 O        -4.007404         0.259973        -0.928837
 C        -2.638948         0.057023        -1.431193
 C        -2.502115        -1.080686        -2.417074
 C        -1.937910        -1.306277        -1.085210
 C        -0.450391        -1.251578        -0.779086
 C        -0.004072         0.040233         0.030949
 O         0.867378         0.040920         0.899100
 C        -0.690858         1.340853        -0.359715
 C        -1.639293         1.110822        -1.577204
 H        -3.784131         0.573127        -0.004308
 H        -3.426852        -1.628409        -2.558791
 H        -1.866011        -0.866825        -3.221902
 H        -2.519156        -2.119317        -0.685575
 H        -0.090081        -2.284543        -0.476218
 H         0.046127        -1.192564        -1.742459
 H        -1.145401         1.758234         0.545795
 H         0.139059         1.988116        -0.610199
 H        -2.248401         2.110486        -1.576461
 H        -1.078652         1.202540        -2.529018
