19
Iteration:  3695
 O        -3.858074         0.265194        -0.871224
 C        -2.595400        -0.014382        -1.455518
 C        -2.570320        -1.040120        -2.416982
 C        -1.924299        -1.312521        -1.033337
 C        -0.456410        -1.203706        -0.799833
 C        -0.032271         0.067532        -0.035669
 O         0.807354        -0.014502         0.886954
 C        -0.809021         1.316940        -0.260506
 C        -1.576922         1.159203        -1.690264
 H        -3.824533         0.469676         0.035855
 H        -3.454509        -1.594555        -2.595216
 H        -1.926233        -0.904342        -3.357274
 H        -2.467585        -1.895284        -0.300232
 H        -0.168228        -2.028762        -0.217460
 H         0.057244        -1.256087        -1.814414
 H        -1.457536         1.809117         0.467263
 H        -0.066500         2.080592        -0.408008
 H        -1.971287         2.123346        -2.112568
 H        -0.907744         0.788559        -2.402035
