19
Iteration:  3528charge 0 multiplicity 1
 O        -4.021908         0.308594        -1.168912
 C        -2.613401         0.036693        -1.461096
 C        -2.336389        -1.069621        -2.462271
 C        -1.994876        -1.260647        -0.994170
 C        -0.618481        -1.337154        -0.425146
 C         0.001904        -0.069779         0.102523
 O         1.142753         0.089715         0.391154
 C        -0.857139         1.244725        -0.128883
 C        -1.728128         1.244373        -1.442038
 H        -4.021751         0.816108        -0.383773
 H        -3.020640        -1.813747        -2.815555
 H        -1.531548        -0.811896        -3.222905
 H        -2.882035        -1.698645        -0.521138
 H        -0.475734        -2.239662         0.223455
 H         0.152473        -1.375661        -1.238118
 H        -1.525155         1.042936         0.818923
 H        -0.211927         2.100794         0.311009
 H        -2.228395         2.288740        -1.622320
 H        -0.998356         1.136968        -2.156769
