19
Iteration:   748
 O        -3.728772         0.326949        -0.820092
 C        -2.610535         0.018374        -1.461910
 C        -2.780686        -1.051423        -2.523978
 C        -1.890942        -1.273776        -1.117205
 C        -0.399705        -1.196604        -0.829116
 C        -0.041229         0.091016         0.103490
 O         0.625404         0.030447         1.103578
 C        -0.643205         1.240168        -0.498149
 C        -1.572532         1.032940        -1.688079
 H        -3.575416         0.394548         0.232719
 H        -3.714144        -1.480483        -2.207431
 H        -2.337977        -1.083079        -3.529443
 H        -2.449616        -1.910718        -0.451174
 H         0.086936        -2.099308        -0.490723
 H         0.194709        -1.027138        -1.766434
 H        -1.113902         1.736283         0.332717
 H         0.228732         1.794017        -0.806721
 H        -2.001897         2.083297        -1.820778
 H        -0.976168         0.828701        -2.600077
