19
Iteration:   270charge 0 multiplicity 1
 O        -4.016892         0.248505        -1.632971
 C        -2.607692         0.051233        -1.388689
 C        -1.896572        -0.955154        -2.209346
 C        -2.172745        -1.237492        -0.724367
 C        -0.871858        -1.294025         0.063563
 C        -0.053982        -0.026483        -0.047161
 O         1.138539        -0.180231        -0.247580
 C        -0.732911         1.346373         0.010286
 C        -1.790762         1.336888        -1.211620
 H        -4.407540        -0.193930        -0.956139
 H        -2.338735        -1.565894        -2.981687
 H        -0.931990        -0.664886        -2.533645
 H        -2.960091        -1.938349        -0.427497
 H        -0.974979        -1.468057         1.164838
 H        -0.165918        -2.048185        -0.275787
 H        -1.275428         1.516487         0.937405
 H        -0.035028         2.151499        -0.233651
 H        -2.503790         2.097247        -1.089173
 H        -1.400487         1.642069        -2.242374
