19
Iteration:  3496charge 0 multiplicity 1
 O        -3.940674         0.277799        -1.284637
 C        -2.556019         0.012273        -1.444615
 C        -2.432407        -1.074556        -2.426715
 C        -2.089504        -1.287443        -0.975130
 C        -0.631268        -1.200580        -0.519854
 C         0.000634         0.054895        -0.029253
 O         1.183243         0.022286         0.395735
 C        -0.897344         1.270469        -0.011688
 C        -1.662479         1.226055        -1.336569
 H        -4.188145         0.026983        -0.303968
 H        -3.282393        -1.547799        -2.836198
 H        -1.551930        -1.075797        -3.151633
 H        -2.798083        -1.742027        -0.273177
 H        -0.693457        -1.695418         0.448969
 H         0.182990        -1.846902        -0.878702
 H        -1.479641         0.943476         0.939088
 H        -0.166172         2.122863         0.231584
 H        -2.261303         2.175058        -1.657693
 H        -0.984811         1.112181        -2.162651
