19
Iteration:  1237charge 0 multiplicity 1
 O        -3.972222         0.359649        -1.580722
 C        -2.542172         0.069282        -1.443221
 C        -2.001215        -0.982208        -2.317701
 C        -2.113669        -1.344378        -0.898418
 C        -0.858417        -1.370025         0.054642
 C        -0.069815        -0.095238        -0.100164
 O         1.137105        -0.017848        -0.187691
 C        -0.806655         1.281214         0.125238
 C        -1.795495         1.246710        -1.105303
 H        -4.347736         0.386164        -0.768043
 H        -2.429488        -1.572423        -3.142583
 H        -0.985054        -0.676082        -2.580933
 H        -2.845729        -2.080187        -0.555505
 H        -1.273867        -1.291029         1.028623
 H        -0.016695        -1.952380        -0.170910
 H        -1.347942         1.544843         0.986673
 H        -0.094995         2.082277        -0.193665
 H        -2.400287         2.163100        -0.929070
 H        -1.212613         1.538813        -1.976110
