19
Iteration:  4681
 O        -4.011159         0.097440        -1.136667
 C        -2.613851        -0.010635        -1.342188
 C        -2.280556        -0.779350        -2.615768
 C        -1.965137        -1.294325        -1.120923
 C        -0.593773        -1.311453        -0.479340
 C         0.005048         0.018246        -0.123517
 O         0.808165        -0.017563         0.834157
 C        -0.356823         1.231154        -0.853652
 C        -1.922810         1.283089        -0.813902
 H        -4.176896         1.082542        -0.836969
 H        -3.321161        -1.114719        -3.079864
 H        -1.450452        -0.630908        -3.262810
 H        -2.643037        -2.013297        -0.562076
 H        -0.737744        -1.845428         0.393790
 H         0.061187        -1.866937        -1.121809
 H         0.045620         2.052295        -0.208314
 H         0.135009         1.156090        -1.840212
 H        -2.276870         1.311264         0.217911
 H        -2.226495         2.221188        -1.437279
