19
Iteration:  1825charge 0 multiplicity 1
 O        -3.998112         0.162073        -1.216255
 C        -2.592460         0.043153        -1.530983
 C        -2.238196        -0.936645        -2.544281
 C        -2.096642        -1.218594        -0.934759
 C        -0.813441        -1.284877        -0.108753
 C         0.034493        -0.057702         0.051697
 O         1.237883        -0.097778         0.305385
 C        -0.684556         1.284256        -0.212406
 C        -1.828194         1.329542        -1.314043
 H        -4.335059         0.680685        -2.039454
 H        -3.053938        -1.517716        -2.832764
 H        -1.230234        -0.763508        -3.073622
 H        -2.816180        -1.979114        -0.653915
 H        -1.096013        -1.697650         0.919588
 H        -0.130473        -2.057604        -0.536615
 H        -1.284281         1.595602         0.737555
 H        -0.021042         2.170135        -0.430782
 H        -2.453968         2.126969        -0.943325
 H        -1.345899         1.774598        -2.233300
