19
Iteration:  3213charge 0 multiplicity 1
 O        -3.944262         0.185708        -1.666843
 C        -2.544594         0.021254        -1.382475
 C        -1.890254        -0.902421        -2.344454
 C        -2.193088        -1.337017        -0.901487
 C        -0.936699        -1.184765         0.210316
 C         0.024563         0.011034        -0.074995
 O         1.187392        -0.088407        -0.426002
 C        -0.751941         1.215162         0.136691
 C        -1.909411         1.310325        -0.975274
 H        -4.513180        -0.076761        -0.925679
 H        -2.592221        -1.040339        -3.190394
 H        -0.878692        -0.876741        -2.690593
 H        -3.090219        -1.926032        -0.802624
 H        -1.488593        -1.004341         1.165377
 H        -0.215936        -2.033405         0.247812
 H        -1.179376         1.199547         1.174151
 H        -0.044989         2.109362         0.084350
 H        -2.616402         1.943106        -0.591640
 H        -1.410179         1.818705        -1.831784
