19
Iteration:  4432charge 0 multiplicity 1
 O        -4.057523         0.167825        -1.681899
 C        -2.666640         0.078070        -1.350227
 C        -1.902598        -0.850776        -2.309847
 C        -2.080108        -1.282267        -0.879016
 C        -0.851014        -1.214442        -0.024785
 C         0.004960        -0.016155        -0.113013
 O         1.289483        -0.162792        -0.174473
 C        -0.681339         1.269815        -0.102594
 C        -2.035262         1.307941        -0.860226
 H        -4.396776        -0.270421        -0.804354
 H        -2.544875        -1.199430        -3.090912
 H        -0.752482        -0.703359        -2.581257
 H        -2.817985        -2.062693        -0.759640
 H        -1.162684        -1.163698         0.983647
 H        -0.390419        -2.143770        -0.009110
 H        -0.896429         1.371478         0.944609
 H        -0.038067         2.121667        -0.446340
 H        -2.782890         1.651739        -0.074762
 H        -1.943865         2.086106        -1.606009
