19
Iteration:  4964
 O        -4.121365         0.118354        -1.142339
 C        -2.672709         0.074915        -1.379696
 C        -2.134021        -0.669624        -2.620671
 C        -1.981293        -1.310538        -1.196510
 C        -0.754272        -1.367872        -0.306903
 C         0.140479        -0.046061        -0.085596
 O         1.077067        -0.078893         0.620613
 C        -0.482410         1.182479        -0.660042
 C        -2.002765         1.342303        -0.812812
 H        -4.709542         0.591212        -1.842780
 H        -2.802789        -1.268087        -3.119183
 H        -1.192135        -0.270846        -3.057637
 H        -2.706112        -2.058279        -0.948166
 H        -0.975332        -1.631372         0.688094
 H        -0.064744        -2.213727        -0.582347
 H        -0.084462         2.022403         0.052896
 H        -0.039941         1.324373        -1.619245
 H        -2.456432         1.489750         0.217284
 H        -2.182662         2.187471        -1.467474
