19
Iteration:  4029
 O        -3.898517         0.304484        -1.040133
 C        -2.608552         0.043155        -1.449703
 C        -2.538256        -1.132081        -2.380534
 C        -1.986688        -1.261963        -0.961937
 C        -0.483708        -1.256843        -0.744151
 C        -0.049459        -0.009648         0.000896
 O         0.980084         0.076108         0.655466
 C        -0.905646         1.223929        -0.149666
 C        -1.575146         1.256033        -1.559791
 H        -3.951490         0.512879        -0.041420
 H        -3.222204        -1.692193        -3.015540
 H        -1.531749        -1.259153        -2.952980
 H        -2.691977        -1.826270        -0.337711
 H        -0.136299        -2.064042        -0.080474
 H         0.168215        -1.131460        -1.670352
 H        -1.589875         1.225305         0.690678
 H        -0.233532         2.037219         0.011562
 H        -2.058850         2.108826        -1.862399
 H        -0.860594         0.934325        -2.418983
