19
Iteration:  4408
 O        -3.955310         0.013893        -1.666088
 C        -2.614047         0.095181        -1.347310
 C        -1.853665        -0.857104        -2.330451
 C        -2.057737        -1.262916        -0.848493
 C        -0.894614        -1.301407         0.096988
 C        -0.049372        -0.059491        -0.169856
 O         1.196252        -0.214328        -0.298048
 C        -0.762491         1.360001        -0.025763
 C        -2.011198         1.539946        -0.859571
 H        -4.465070         0.130479        -0.819986
 H        -2.296460        -1.249672        -3.225157
 H        -0.830480        -0.536962        -2.431924
 H        -2.946145        -1.890981        -0.765322
 H        -1.054733        -1.594389         1.086849
 H        -0.321086        -2.175480        -0.270652
 H        -0.885358         1.443216         1.044456
 H        -0.037826         2.023029        -0.363126
 H        -2.880302         1.989005        -0.206474
 H        -1.780710         2.165205        -1.632229
