19
Iteration:  2906
 O        -3.932923         0.281990        -1.460685
 C        -2.550843         0.075830        -1.401313
 C        -2.060065        -0.970966        -2.382644
 C        -2.021314        -1.316131        -0.968425
 C        -0.881124        -1.369669         0.020057
 C        -0.023485        -0.079286        -0.035653
 O         1.175001         0.059932        -0.127471
 C        -0.895727         1.191153        -0.003287
 C        -1.765622         1.332316        -1.123169
 H        -4.261463         0.477724        -0.505227
 H        -2.860452        -1.434382        -2.940530
 H        -1.234070        -0.656124        -3.081843
 H        -2.668768        -2.217924        -0.766590
 H        -1.495150        -1.438818         0.902212
 H        -0.296127        -2.283189        -0.191654
 H        -1.352610         1.257694         0.963478
 H        -0.263148         2.035348         0.033252
 H        -2.459439         2.136944        -0.959947
 H        -1.160540         1.574064        -2.119447
