19
Iteration:  2427
 O        -4.193512         0.372049        -1.529678
 C        -2.678956         0.015027        -1.469411
 C        -2.061350        -1.076306        -2.354290
 C        -2.048529        -1.233450        -0.841647
 C        -0.711422        -1.273848        -0.092041
 C         0.045256        -0.012411        -0.091990
 O         1.275236        -0.122662         0.150379
 C        -0.709553         1.273500        -0.060303
 C        -1.875826         1.357312        -1.200349
 H        -4.599029        -0.593178        -1.371284
 H        -2.551801        -1.743750        -2.935156
 H        -1.066206        -0.754919        -2.718923
 H        -2.813479        -1.926925        -0.561501
 H        -0.795803        -1.710221         0.952580
 H        -0.147296        -1.883625        -0.782120
 H        -1.189882         1.341197         0.941850
 H        -0.086436         2.135109        -0.063773
 H        -2.736376         1.954193        -0.697162
 H        -1.400438         1.879023        -2.176986
