19
Iteration:  4351charge 0 multiplicity 1
 O        -3.988703         0.241327        -1.748740
 C        -2.622962         0.032251        -1.350320
 C        -1.802638        -0.900080        -2.234640
 C        -1.970312        -1.360240        -0.874557
 C        -0.898831        -1.210370         0.172854
 C        -0.037874        -0.041418        -0.092159
 O         1.173281        -0.121023        -0.567964
 C        -0.810337         1.246926         0.235239
 C        -1.978563         1.329189        -0.964741
 H        -4.357927         0.495162        -0.800172
 H        -2.430203        -1.358219        -3.009522
 H        -0.846894        -0.760806        -2.555529
 H        -2.711410        -2.127425        -0.604556
 H        -1.280426        -1.024111         1.166544
 H        -0.307673        -2.185515         0.029979
 H        -1.335674         1.144651         1.176451
 H        -0.133288         2.060339         0.373753
 H        -2.911582         1.910369        -0.538722
 H        -1.737488         2.038131        -1.707366
