19
Iteration:  1839
 O        -4.112380         0.193536        -1.240890
 C        -2.677778         0.068363        -1.430045
 C        -2.191623        -1.025839        -2.530397
 C        -2.029320        -1.227888        -1.049881
 C        -0.825116        -1.267483        -0.117725
 C         0.113407         0.006058        -0.030140
 O         1.226949        -0.115275         0.355485
 C        -0.665117         1.282133        -0.198819
 C        -1.760403         1.371660        -1.257966
 H        -4.567692         0.258833        -2.061653
 H        -3.056619        -1.558047        -3.008408
 H        -1.445238        -0.771620        -3.325101
 H        -2.874413        -1.820145        -0.664683
 H        -1.178625        -1.438766         0.945608
 H        -0.127651        -2.073067        -0.430112
 H        -0.946392         1.430820         0.843451
 H         0.172950         2.066153        -0.248563
 H        -2.633804         2.048466        -1.041234
 H        -1.303421         1.397682        -2.244619
