19
Iteration:  4423
 O        -4.028688         0.116604        -1.670580
 C        -2.621685         0.054811        -1.374139
 C        -1.835636        -0.858400        -2.303269
 C        -2.127102        -1.242871        -0.866578
 C        -0.886413        -1.289629        -0.019687
 C         0.055532        -0.046963        -0.178437
 O         1.209841        -0.187852        -0.201416
 C        -0.652453         1.341221        -0.045229
 C        -2.085344         1.409536        -0.819358
 H        -4.502368        -0.231291        -0.821214
 H        -2.498195        -1.469652        -2.933341
 H        -0.797479        -0.556320        -2.779089
 H        -2.762396        -2.100294        -0.669035
 H        -1.180746        -1.140248         1.026278
 H        -0.249102        -2.121627        -0.132689
 H        -0.866843         1.440675         1.034079
 H         0.078849         2.211240        -0.274198
 H        -2.849827         1.908730        -0.267317
 H        -1.993709         2.057374        -1.772981
