19
Iteration:   115
 O        -3.936366         0.142869        -1.694687
 C        -2.623778         0.018254        -1.415818
 C        -2.202846        -1.055147        -2.283058
 C        -2.167941        -1.212887        -0.785791
 C        -0.833622        -1.232818        -0.053763
 C         0.085941        -0.022390        -0.043086
 O         1.275480        -0.168505        -0.034607
 C        -0.685503         1.404363        -0.057013
 C        -1.905322         1.376990        -1.072886
 H        -4.393991         0.563903        -0.932313
 H        -2.896920        -1.823015        -2.803450
 H        -1.231456        -1.039911        -2.818462
 H        -2.972138        -1.866361        -0.409129
 H        -1.053329        -1.158567         1.017135
 H        -0.280804        -2.171268        -0.287514
 H        -0.904601         1.835446         0.928614
 H         0.121528         2.093081        -0.407819
 H        -2.783608         2.067893        -0.808164
 H        -1.589343         1.861775        -2.085737
