19
Iteration:  3105charge 0 multiplicity 1
 O        -4.017824         0.292245        -1.693585
 C        -2.630405        -0.020100        -1.400028
 C        -1.879802        -0.875002        -2.402277
 C        -2.002470        -1.253650        -0.833763
 C        -0.888399        -1.241375         0.189352
 C         0.034930        -0.061031        -0.074165
 O         1.247840        -0.205752        -0.265068
 C        -0.786869         1.321455        -0.053633
 C        -2.037238         1.309472        -0.886808
 H        -4.501730         0.063669        -0.829078
 H        -2.499256        -1.462004        -2.984144
 H        -0.809758        -0.643138        -2.812916
 H        -2.734468        -2.028509        -0.724838
 H        -1.203234        -1.395741         1.263478
 H        -0.370471        -2.178173        -0.115030
 H        -1.008698         1.470962         1.059506
 H        -0.041011         2.102885        -0.412643
 H        -2.936787         1.816506        -0.504228
 H        -1.849341         1.987705        -1.886353
