19
Iteration:  3748charge 0 multiplicity 1
 O        -3.863894         0.264175        -0.857744
 C        -2.615899         0.024215        -1.471747
 C        -2.572977        -1.189714        -2.418300
 C        -1.934550        -1.244120        -1.008920
 C        -0.330265        -1.198162        -0.983042
 C        -0.044321         0.005087         0.014200
 O         0.647320        -0.015917         1.044133
 C        -0.617864         1.302526        -0.490420
 C        -1.660212         1.216106        -1.532968
 H        -3.671556         0.586907         0.024312
 H        -3.568357        -1.585456        -2.511035
 H        -1.779160        -1.211743        -3.218716
 H        -2.396645        -1.714285        -0.147869
 H        -0.012877        -2.162051        -0.643852
 H         0.160131        -0.931410        -1.957265
 H        -1.091160         1.885472         0.278100
 H         0.101486         2.060078        -0.841439
 H        -2.284132         2.253857        -1.501017
 H        -1.258802         1.128876        -2.521918
