19
Iteration:  1422
 O        -3.961251         0.237564        -1.640773
 C        -2.606971         0.043470        -1.363187
 C        -1.791505        -0.847738        -2.314582
 C        -2.101852        -1.285766        -0.864398
 C        -0.934216        -1.334326         0.139737
 C         0.005602        -0.173673        -0.042818
 O         1.214869        -0.203073        -0.252598
 C        -0.797754         1.385290        -0.093280
 C        -1.989365         1.387598        -0.997958
 H        -4.273833         0.502773        -0.642022
 H        -2.232005        -1.360670        -3.109546
 H        -0.783638        -0.351898        -2.537189
 H        -2.783565        -2.098119        -0.891642
 H        -1.483708        -1.273993         1.153312
 H        -0.724715        -2.381522        -0.035024
 H        -1.112443         1.422674         0.992171
 H        -0.021263         2.157508        -0.403787
 H        -2.835781         2.065073        -0.657269
 H        -1.770905         1.936322        -1.955846
