19
Iteration:  2943charge 0 multiplicity 1
 O        -4.095741         0.154905        -1.588348
 C        -2.685209         0.080485        -1.441095
 C        -1.977108        -0.910381        -2.311414
 C        -2.052126        -1.154119        -0.839604
 C        -0.871070        -1.262139        -0.065965
 C         0.084748         0.002679        -0.084197
 O         1.263007        -0.169513        -0.087384
 C        -0.829713         1.244126         0.043290
 C        -1.839363         1.358044        -1.105250
 H        -4.475230         0.123333        -0.611788
 H        -2.640946        -1.617852        -2.972121
 H        -0.966622        -0.689506        -2.701705
 H        -2.655989        -2.043117        -0.658583
 H        -0.964877        -1.683266         0.937961
 H        -0.309819        -2.046056        -0.578768
 H        -1.269280         1.152016         1.036709
 H        -0.150357         2.164843        -0.089478
 H        -2.537187         2.199131        -0.836699
 H        -1.231636         1.647343        -1.876513
