19
Iteration:  3852
 O        -3.759065         0.256931        -0.682268
 C        -2.621543        -0.019330        -1.480824
 C        -2.654463        -1.100254        -2.406804
 C        -1.771467        -1.288768        -1.095366
 C        -0.341487        -1.156742        -0.967373
 C        -0.065791         0.144441        -0.030301
 O         0.504040        -0.132497         1.063289
 C        -0.718402         1.409156        -0.458957
 C        -1.577206         1.170232        -1.681538
 H        -3.360258         0.667830         0.206251
 H        -3.482605        -1.738790        -2.358726
 H        -2.144238        -1.114828        -3.413930
 H        -2.383443        -1.981630        -0.511923
 H         0.076191        -2.072853        -0.396631
 H         0.156376        -1.296926        -1.948866
 H        -1.376614         1.894949         0.296134
 H        -0.022229         2.193778        -0.682482
 H        -2.087823         1.947830        -2.042482
 H        -0.872699         0.883191        -2.537196
