19
Iteration:  2980charge 0 multiplicity 1
 O        -3.975203         0.202688        -1.636155
 C        -2.573077         0.075515        -1.387426
 C        -2.046639        -0.936721        -2.329606
 C        -2.132218        -1.328337        -0.870427
 C        -0.888745        -1.383688        -0.018041
 C         0.080655        -0.087581        -0.174938
 O         1.241958         0.016788        -0.034015
 C        -0.732804         1.247532        -0.071912
 C        -1.924052         1.404940        -0.973884
 H        -4.530266         0.476902        -0.819085
 H        -2.779737        -1.449706        -2.861542
 H        -1.036411        -0.946178        -2.771819
 H        -3.016714        -1.930977        -0.626356
 H        -1.084044        -1.641674         1.074705
 H        -0.278184        -2.158169        -0.544144
 H        -0.953160         1.324375         1.090231
 H        -0.115724         2.120400        -0.191990
 H        -2.734463         2.026939        -0.608335
 H        -1.691914         2.042899        -1.918804
