19
Iteration:   787charge 0 multiplicity 1
 O        -3.738553         0.450462        -0.754821
 C        -2.545415         0.042506        -1.442544
 C        -2.472971        -1.205195        -2.323224
 C        -1.880739        -1.260536        -0.985941
 C        -0.362961        -1.198863        -0.907973
 C        -0.081758        -0.019928        -0.104400
 O         0.426162        -0.154244         0.980113
 C        -0.709236         1.368492        -0.503428
 C        -1.605683         1.227237        -1.687546
 H        -3.541730         0.555607         0.106507
 H        -3.401720        -1.844140        -2.485978
 H        -1.946224        -1.303397        -3.236409
 H        -2.438604        -1.924860        -0.254757
 H         0.121588        -1.977581        -0.215695
 H         0.048548        -1.389080        -1.927196
 H        -1.359476         1.810120         0.305195
 H         0.064526         2.159767        -0.773132
 H        -2.179920         2.146050        -1.853832
 H        -1.045189         0.866325        -2.561966
