19
Iteration:   670
 O        -4.033932         0.337646        -1.087512
 C        -2.562670         0.074392        -1.529935
 C        -2.574820        -1.174314        -2.299040
 C        -1.931020        -1.276260        -1.008732
 C        -0.492468        -1.235421        -0.786755
 C         0.018443        -0.072479         0.063593
 O         0.879732        -0.018862         0.924649
 C        -0.642192         1.324568        -0.391395
 C        -1.609853         1.257752        -1.583640
 H        -3.968721         0.394994        -0.207115
 H        -3.631041        -1.449865        -2.284809
 H        -2.106222        -1.359469        -3.226324
 H        -2.466652        -1.776520        -0.142440
 H        -0.108610        -2.114213        -0.259357
 H         0.154747        -1.383818        -1.670024
 H        -1.211003         1.520030         0.493051
 H         0.180756         2.040388        -0.505984
 H        -2.351362         2.119996        -1.383052
 H        -1.062705         1.410153        -2.544536
