19
Iteration:  1435charge 0 multiplicity 1
 O        -3.990314         0.225826        -1.572251
 C        -2.595769         0.039384        -1.456722
 C        -1.825639        -0.869524        -2.350723
 C        -2.094668        -1.298373        -0.938842
 C        -0.995498        -1.261923         0.087571
 C         0.005559        -0.094950        -0.022377
 O         1.197201        -0.191808        -0.205764
 C        -0.669785         1.250664        -0.024860
 C        -2.019891         1.380244        -1.037145
 H        -4.347450         0.602936        -0.797444
 H        -2.437257        -1.354143        -3.095644
 H        -0.793515        -0.626810        -2.652110
 H        -2.777297        -2.129894        -0.765263
 H        -1.359488        -0.995798         1.154120
 H        -0.260071        -2.057946         0.284336
 H        -1.021369         1.588120         1.048076
 H         0.035005         2.106229        -0.254092
 H        -2.814713         1.927289        -0.403346
 H        -1.746663         1.915207        -1.974540
