19
Iteration:  1241
 O        -3.957090         0.366962        -1.591944
 C        -2.536269         0.057872        -1.427732
 C        -1.979785        -0.983334        -2.327211
 C        -2.113382        -1.329442        -0.894738
 C        -0.875124        -1.348461         0.081902
 C        -0.073449        -0.096642        -0.092437
 O         1.157264        -0.024817        -0.215403
 C        -0.847298         1.254468         0.098953
 C        -1.801903         1.287458        -1.087089
 H        -4.472055         0.334652        -0.650024
 H        -2.474136        -1.650520        -3.089501
 H        -1.012154        -0.766756        -2.733635
 H        -2.858220        -2.104217        -0.759225
 H        -1.228882        -1.374895         1.162236
 H         0.068223        -2.011713        -0.110432
 H        -1.362588         1.667165         1.027307
 H        -0.042326         1.923434        -0.143867
 H        -2.511370         2.111758        -0.900941
 H        -1.147160         1.573036        -1.921236
