19
Iteration:  3428charge 0 multiplicity 1
 O        -4.012252         0.235425        -1.232120
 C        -2.585534         0.024535        -1.446314
 C        -2.232332        -0.944761        -2.471186
 C        -2.121216        -1.332995        -0.932702
 C        -0.732256        -1.322454        -0.345050
 C         0.025445         0.037740        -0.030005
 O         1.172050         0.002626         0.269611
 C        -0.811498         1.284462        -0.048128
 C        -1.687105         1.301144        -1.390719
 H        -4.172423        -0.012677        -0.332244
 H        -2.968166        -1.516765        -3.077310
 H        -1.353144        -0.930154        -3.026017
 H        -2.798898        -2.091756        -0.574755
 H        -0.927498        -1.535253         0.747809
 H        -0.014424        -2.095320        -0.693827
 H        -1.558778         1.095210         0.847690
 H        -0.309726         2.266595         0.175921
 H        -2.356066         2.233171        -1.452945
 H        -0.926266         1.489442        -2.040259
