19
Iteration:  1577
 O        -4.053386         0.179091        -1.556654
 C        -2.613884         0.051879        -1.407857
 C        -2.000745        -0.877102        -2.412002
 C        -2.101990        -1.240074        -0.901984
 C        -0.929166        -1.322766         0.003233
 C         0.044648        -0.076837        -0.121987
 O         1.300062        -0.155932         0.018421
 C        -0.705062         1.286032        -0.046774
 C        -1.920136         1.408845        -1.115657
 H        -4.695147         0.355232        -0.746624
 H        -2.541860        -1.487157        -3.134022
 H        -0.975700        -0.736372        -2.730437
 H        -2.891376        -1.983725        -0.665758
 H        -1.213274        -1.323408         1.077628
 H        -0.290237        -2.203751        -0.165968
 H        -1.134986         1.393377         0.979963
 H         0.048659         2.128582         0.002834
 H        -2.634952         2.202540        -0.754934
 H        -1.460366         1.795879        -2.027400
