19
Iteration:  3835
 O        -3.712946         0.287148        -0.728902
 C        -2.487498        -0.005004        -1.411272
 C        -2.654174        -1.143568        -2.419571
 C        -1.871771        -1.276366        -1.127709
 C        -0.254248        -1.187653        -0.929711
 C        -0.089326        -0.048965        -0.006432
 O         0.496690        -0.028885         1.058995
 C        -0.725710         1.358413        -0.460741
 C        -1.699907         1.203482        -1.699930
 H        -3.403506         0.750041         0.162933
 H        -3.646992        -1.731341        -2.545451
 H        -2.289904        -1.007779        -3.419850
 H        -2.266176        -1.829865        -0.269430
 H         0.136765        -2.106418        -0.593205
 H         0.256559        -0.811361        -1.832544
 H        -1.107409         1.769816         0.487309
 H         0.144303         2.033105        -0.809621
 H        -2.422698         2.176205        -1.926305
 H        -1.129057         1.094900        -2.619348
