19
Iteration:  2780
 O        -4.035625         0.156626        -1.427480
 C        -2.583304         0.074342        -1.408611
 C        -2.214726        -0.958835        -2.368924
 C        -2.134280        -1.230715        -0.900306
 C        -0.747301        -1.387379        -0.241822
 C        -0.003917        -0.063880        -0.019628
 O         1.229908         0.029161         0.140768
 C        -0.825622         1.281798         0.015127
 C        -1.680663         1.350059        -1.314211
 H        -4.401018         0.766981        -0.751240
 H        -3.096530        -1.321092        -2.867122
 H        -1.284322        -0.786851        -2.923675
 H        -2.761007        -2.024830        -0.501888
 H        -0.851959        -1.870571         0.791587
 H        -0.159572        -2.165379        -0.770550
 H        -1.458046         1.125831         0.930862
 H        -0.076929         2.128689         0.178303
 H        -2.386531         2.256450        -1.255759
 H        -0.916888         1.411749        -2.183308
