19
Iteration:   181
 O        -3.997820         0.163389        -1.656121
 C        -2.614890         0.099543        -1.340314
 C        -1.986197        -0.881288        -2.211156
 C        -2.182104        -1.289649        -0.710182
 C        -0.842678        -1.355839         0.095452
 C        -0.040207        -0.059409        -0.073181
 O         1.184553        -0.108873        -0.157059
 C        -0.735343         1.263775        -0.149621
 C        -1.833880         1.423270        -1.201968
 H        -4.508967         0.447469        -0.980721
 H        -2.494448        -1.441728        -2.978809
 H        -0.931281        -0.741519        -2.455835
 H        -2.924887        -1.982827        -0.412659
 H        -0.931066        -1.715292         1.115836
 H        -0.074354        -1.976868        -0.383406
 H        -1.251623         1.337624         0.800489
 H         0.053576         2.044892        -0.183514
 H        -2.275240         2.318866        -1.059849
 H        -1.392645         1.705232        -2.172037
