19
Iteration:  4234
 O        -3.992364         0.157162        -1.489756
 C        -2.551217         0.019023        -1.454181
 C        -2.045780        -0.971484        -2.393059
 C        -2.107265        -1.287774        -0.880528
 C        -0.775709        -1.333925        -0.055930
 C        -0.055521        -0.075340        -0.018410
 O         1.180850         0.035042        -0.199609
 C        -0.813267         1.311118         0.108105
 C        -1.779383         1.347928        -1.106236
 H        -4.317814         0.393130        -0.560163
 H        -2.795552        -1.312482        -3.102446
 H        -1.088015        -0.682593        -2.845129
 H        -2.953577        -1.942811        -0.613916
 H        -1.110695        -1.392894         1.026452
 H        -0.317043        -2.266929        -0.278715
 H        -1.397838         1.412830         1.082999
 H        -0.132530         2.118820         0.100898
 H        -2.554203         2.097448        -0.947831
 H        -1.368384         1.660049        -2.044354
