19
Iteration:  3190charge 0 multiplicity 1
 O        -3.970288         0.287203        -1.715749
 C        -2.621665         0.010531        -1.391607
 C        -1.808643        -0.932169        -2.226574
 C        -2.085717        -1.247217        -0.865371
 C        -0.858442        -1.339012         0.203163
 C        -0.044576        -0.097707        -0.115490
 O         1.145558        -0.064929        -0.410380
 C        -0.730085         1.267417         0.025339
 C        -1.989166         1.328765        -0.917685
 H        -4.565696         0.228447        -0.964473
 H        -2.292499        -1.524844        -2.907672
 H        -0.862876        -0.496600        -2.639673
 H        -2.797475        -2.093629        -0.862637
 H        -1.336392        -1.079220         1.163097
 H        -0.442374        -2.358363         0.134454
 H        -1.114499         1.310512         1.060766
 H         0.050791         2.066226        -0.006833
 H        -2.737203         1.946642        -0.532806
 H        -1.606668         1.833750        -1.794713
