19
Iteration:  4406charge 0 multiplicity 1
 O        -3.953543         0.004762        -1.675458
 C        -2.610747         0.110056        -1.335308
 C        -1.840936        -0.842777        -2.321492
 C        -2.062081        -1.260528        -0.854051
 C        -0.889811        -1.305960         0.092033
 C        -0.025976        -0.057513        -0.144968
 O         1.164079        -0.209882        -0.313516
 C        -0.767712         1.342883        -0.034974
 C        -2.008142         1.531320        -0.869223
 H        -4.403393         0.185241        -0.740527
 H        -2.324519        -1.219775        -3.248889
 H        -0.890719        -0.571526        -2.400228
 H        -2.947868        -1.908426        -0.720892
 H        -1.076860        -1.591283         1.173456
 H        -0.255929        -2.229824        -0.264386
 H        -0.910185         1.442745         1.058941
 H        -0.050605         2.033044        -0.358581
 H        -2.844232         1.967099        -0.231451
 H        -1.760664         2.231534        -1.653023
