19
Iteration:  2807
 O        -3.992957         0.383521        -1.495391
 C        -2.618190        -0.028697        -1.495853
 C        -2.213107        -1.193855        -2.445258
 C        -2.131036        -1.222388        -0.850159
 C        -0.701647        -1.279547        -0.194113
 C         0.071126         0.024429        -0.046926
 O         1.246785        -0.025080         0.056713
 C        -0.916124         1.251687         0.093327
 C        -1.773454         1.299764        -1.152428
 H        -4.171466         0.795840        -0.597197
 H        -3.001582        -1.732526        -2.984567
 H        -1.254655        -0.873616        -2.984810
 H        -2.757029        -2.050334        -0.446294
 H        -0.683948        -1.669676         0.813289
 H        -0.052501        -1.954166        -0.817643
 H        -1.454346         1.015104         1.005925
 H        -0.417153         2.152705         0.316340
 H        -2.459873         2.117326        -1.035177
 H        -0.981754         1.529718        -1.961700
