19
Iteration:   993charge 0 multiplicity 1
 O        -3.863367         0.409737        -1.164426
 C        -2.607657         0.077473        -1.590400
 C        -2.538496        -1.184358        -2.291687
 C        -1.958458        -1.304854        -0.931218
 C        -0.490679        -1.305197        -0.662818
 C        -0.027067         0.010602         0.014945
 O         1.026181        -0.063052         0.737797
 C        -0.888181         1.223994        -0.251987
 C        -1.663613         1.315413        -1.513995
 H        -3.840093         1.001991        -0.445557
 H        -3.481713        -1.654585        -2.380248
 H        -1.762359        -1.298586        -3.155956
 H        -2.580322        -1.773208        -0.178720
 H        -0.247723        -2.162229         0.029465
 H         0.097540        -1.197151        -1.596092
 H        -1.655435         1.217509         0.554767
 H        -0.227491         2.035487         0.001703
 H        -2.302507         2.186754        -1.594657
 H        -1.079786         1.379308        -2.457443
