19
Iteration:  1122
 O        -4.052792         0.315173        -1.345599
 C        -2.594251         0.055028        -1.495405
 C        -2.299807        -1.019725        -2.403397
 C        -2.079000        -1.234739        -0.933834
 C        -0.680130        -1.354077        -0.252579
 C         0.004268        -0.066406         0.076526
 O         1.170205        -0.008980         0.265946
 C        -0.810863         1.292261        -0.031150
 C        -1.622178         1.269335        -1.409974
 H        -4.151741         0.464979        -0.395333
 H        -3.026573        -1.702412        -2.930663
 H        -1.618727        -0.848030        -3.212500
 H        -2.877662        -1.838126        -0.556103
 H        -0.815085        -1.850481         0.704972
 H         0.062171        -1.929883        -0.790196
 H        -1.485321         1.225341         0.874327
 H        -0.359300         2.250426        -0.031096
 H        -2.205735         2.189889        -1.481007
 H        -0.979791         1.122212        -2.302404
