19
Iteration:  3502charge 0 multiplicity 1
 O        -3.961867         0.265641        -1.262704
 C        -2.581931         0.033828        -1.475570
 C        -2.432527        -1.053188        -2.443593
 C        -2.065425        -1.285043        -0.959487
 C        -0.608008        -1.201989        -0.520171
 C         0.026941         0.028657        -0.006012
 O         1.191084         0.003446         0.394853
 C        -0.918276         1.275450         0.017321
 C        -1.677872         1.213780        -1.376042
 H        -4.113677         0.156923        -0.308621
 H        -3.278922        -1.603025        -2.902892
 H        -1.565670        -1.243508        -3.015609
 H        -2.802922        -1.800480        -0.356339
 H        -0.617623        -1.613295         0.555332
 H         0.159046        -1.827687        -1.022738
 H        -1.656714         1.335879         0.810956
 H        -0.261466         2.096245         0.186693
 H        -2.117937         2.172903        -1.492731
 H        -0.889650         1.166975        -2.197464
