19
Iteration:  1109
 O        -3.984715         0.266849        -1.261096
 C        -2.614433         0.093448        -1.512138
 C        -2.337486        -1.037073        -2.553807
 C        -2.095081        -1.188692        -0.894365
 C        -0.713400        -1.359067        -0.238298
 C         0.022328        -0.004967         0.026526
 O         1.256707        -0.016324         0.353775
 C        -0.917072         1.220351        -0.088142
 C        -1.636898         1.279144        -1.458210
 H        -4.141815         0.550602        -0.314033
 H        -3.242039        -1.414583        -2.903192
 H        -1.314571        -1.004420        -2.996310
 H        -2.863961        -1.759260        -0.364116
 H        -0.778181        -1.860258         0.741157
 H        -0.075604        -2.102871        -0.833572
 H        -1.778270         1.272193         0.675515
 H        -0.132002         1.971813         0.177328
 H        -2.220160         2.226800        -1.595960
 H        -0.861512         1.355083        -2.241402
