19
Iteration:   806
 O        -3.697642         0.434217        -0.860407
 C        -2.557227        -0.033076        -1.397497
 C        -2.598550        -1.177153        -2.318722
 C        -1.841228        -1.280755        -0.939294
 C        -0.367323        -1.224707        -0.970217
 C        -0.068433         0.049210        -0.049804
 O         0.425280        -0.170662         1.030510
 C        -0.642234         1.397695        -0.484115
 C        -1.660012         1.152498        -1.723814
 H        -3.607232         0.754783        -0.028452
 H        -3.599078        -1.610271        -2.676205
 H        -1.896548        -1.133945        -3.201384
 H        -2.165820        -1.691496         0.032022
 H         0.231159        -2.007657        -0.428123
 H        -0.101751        -0.923917        -1.966208
 H        -0.922289         1.799623         0.526030
 H         0.175041         2.060385        -0.732925
 H        -2.353362         1.944891        -1.718739
 H        -1.165178         1.259040        -2.680359
