19
Iteration:  3628
 O        -3.987465         0.409864        -1.096548
 C        -2.611212         0.038530        -1.450856
 C        -2.422247        -1.109018        -2.402024
 C        -1.942339        -1.358023        -0.954663
 C        -0.501361        -1.251613        -0.703301
 C        -0.005205         0.069741        -0.038945
 O         0.956511         0.021879         0.680095
 C        -0.811856         1.265698        -0.221900
 C        -1.633247         1.175765        -1.500893
 H        -4.123894        -0.071728        -0.206212
 H        -3.387598        -1.670125        -2.569441
 H        -1.682796        -1.011038        -3.218043
 H        -2.556117        -1.892661        -0.204490
 H        -0.272959        -1.952362         0.103181
 H         0.089491        -1.579122        -1.613425
 H        -1.466884         1.259446         0.689858
 H        -0.087726         2.080767        -0.002457
 H        -2.322555         2.083429        -1.412755
 H        -1.132604         1.162287        -2.409238
