19
Iteration:  3382
 O        -4.094618         0.281348        -1.333397
 C        -2.719225         0.061705        -1.503040
 C        -2.164962        -1.008595        -2.448130
 C        -2.025851        -1.323547        -0.989942
 C        -0.653693        -1.362397        -0.103266
 C         0.014110        -0.040476         0.052758
 O         1.263424         0.008671         0.136461
 C        -0.814533         1.244973        -0.038433
 C        -1.784057         1.318931        -1.314867
 H        -4.078329         0.797284        -0.465809
 H        -2.832108        -1.540370        -3.185811
 H        -1.374020        -0.542085        -3.047615
 H        -2.696518        -2.116204        -0.594037
 H        -1.011823        -1.802126         0.883438
 H         0.073584        -2.013163        -0.603809
 H        -1.638991         1.396251         0.787212
 H        -0.119791         2.056200         0.140102
 H        -2.483468         2.113970        -1.150272
 H        -1.322666         1.599566        -2.271648
