19
Iteration:  3821
 O        -3.779247         0.331324        -0.700540
 C        -2.582649         0.009634        -1.486596
 C        -2.613595        -1.120137        -2.388624
 C        -1.760371        -1.366269        -1.123635
 C        -0.312611        -1.199991        -0.994465
 C        -0.109339         0.013802         0.046499
 O         0.503532         0.000392         1.067052
 C        -0.681275         1.253105        -0.555108
 C        -1.666729         1.228353        -1.645253
 H        -3.590613         0.668809         0.114668
 H        -3.602079        -1.515246        -2.411349
 H        -1.858777        -1.173664        -3.224703
 H        -2.305759        -1.900968        -0.326764
 H         0.282843        -2.070258        -0.541677
 H         0.147518        -0.941294        -1.966863
 H        -1.278812         1.754174         0.269853
 H         0.264463         1.895245        -0.596775
 H        -2.279426         2.095288        -1.449672
 H        -1.231754         1.334507        -2.716208
