19
Iteration:   780charge 0 multiplicity 1
 O        -3.756439         0.415210        -0.744737
 C        -2.624601         0.093125        -1.448316
 C        -2.518353        -1.193805        -2.364936
 C        -1.838035        -1.273109        -1.017842
 C        -0.368934        -1.328110        -0.900260
 C        -0.111026         0.008963        -0.069207
 O         0.476680        -0.108591         1.032317
 C        -0.689169         1.390835        -0.503433
 C        -1.569021         1.198141        -1.735053
 H        -3.602616         0.460746         0.211934
 H        -3.412065        -1.756521        -2.365736
 H        -2.004277        -1.255692        -3.344775
 H        -2.320178        -1.832427        -0.236746
 H         0.173766        -2.002299        -0.291956
 H        -0.091144        -1.135843        -1.958584
 H        -1.257847         1.723091         0.348183
 H         0.053333         2.193703        -0.565430
 H        -1.977357         2.254085        -1.986339
 H        -1.038341         0.972098        -2.695699
