19
Iteration:  3844charge 0 multiplicity 1
 O        -3.666670         0.257142        -0.733293
 C        -2.591798        -0.022979        -1.449405
 C        -2.683220        -1.136601        -2.439304
 C        -1.799328        -1.244410        -1.065444
 C        -0.330229        -1.187302        -0.938068
 C        -0.040104         0.005983        -0.027445
 O         0.493495        -0.078164         1.065182
 C        -0.754475         1.433061        -0.459759
 C        -1.670673         1.204468        -1.691476
 H        -3.451024         0.725167         0.171119
 H        -3.538385        -1.847491        -2.278615
 H        -2.254299        -0.857560        -3.399227
 H        -2.277264        -2.067468        -0.573983
 H         0.141494        -2.048056        -0.457483
 H         0.109444        -1.052232        -1.947693
 H        -1.178304         1.882029         0.478645
 H         0.207598         2.015023        -0.677840
 H        -2.194733         2.124330        -2.031559
 H        -0.937516         0.912264        -2.492249
