19
Iteration:   644charge 0 multiplicity 1
 O        -3.990990         0.438588        -1.185407
 C        -2.651736        -0.029112        -1.433242
 C        -2.587749        -1.184895        -2.403776
 C        -2.005775        -1.270190        -0.947948
 C        -0.500367        -1.106947        -0.722836
 C         0.050872        -0.003201         0.073738
 O         1.043417        -0.104603         0.865504
 C        -0.736571         1.357229        -0.304935
 C        -1.704370         1.105086        -1.499069
 H        -3.947612         0.845156        -0.344414
 H        -3.424965        -1.788387        -2.764280
 H        -1.792432        -1.071199        -3.208945
 H        -2.523124        -1.907877        -0.285434
 H         0.077664        -1.977724        -0.290935
 H        -0.013635        -1.122749        -1.715472
 H        -1.140472         1.762716         0.663348
 H         0.070349         2.031362        -0.677356
 H        -2.155767         2.031282        -1.898896
 H        -0.935923         0.718463        -2.264486
