19
Iteration:  3740charge 0 multiplicity 1
 O        -3.835591         0.303168        -0.858767
 C        -2.622747        -0.012339        -1.529430
 C        -2.567604        -1.150911        -2.344811
 C        -1.943018        -1.251823        -1.021215
 C        -0.327140        -1.183522        -0.981475
 C         0.018443         0.008283         0.015808
 O         0.655475        -0.002305         1.033454
 C        -0.680379         1.279952        -0.450736
 C        -1.713800         1.179916        -1.578389
 H        -3.603518         0.692451        -0.055598
 H        -3.547106        -1.666001        -2.607303
 H        -1.903744        -1.134001        -3.184110
 H        -2.553964        -1.912041        -0.377425
 H         0.021936        -2.042980        -0.443644
 H         0.230732        -1.053026        -1.965219
 H        -1.006806         1.800857         0.468598
 H         0.162976         1.843492        -0.802821
 H        -2.303874         2.080673        -1.429075
 H        -1.159581         1.418478        -2.469644
