19
Iteration:  3423
 O        -3.983134         0.209128        -1.251040
 C        -2.582999         0.011840        -1.448004
 C        -2.276054        -0.986913        -2.453236
 C        -2.103597        -1.338340        -0.963858
 C        -0.761869        -1.310254        -0.353071
 C         0.012242         0.051318        -0.049258
 O         1.200561         0.003847         0.274953
 C        -0.819728         1.306798        -0.013692
 C        -1.701356         1.319209        -1.367777
 H        -4.155409        -0.000553        -0.301374
 H        -3.113897        -1.225889        -3.164309
 H        -1.260681        -0.805553        -2.959023
 H        -2.865119        -2.031613        -0.549272
 H        -0.988814        -1.464482         0.736872
 H        -0.052047        -2.134835        -0.508851
 H        -1.457144         1.087371         0.795756
 H        -0.245008         2.204191         0.126040
 H        -2.244824         2.227600        -1.365637
 H        -0.858303         1.372991        -2.201850
