19
Iteration:  1492
 O        -4.058468         0.196229        -1.680751
 C        -2.679047         0.122509        -1.385173
 C        -1.876142        -0.879423        -2.314386
 C        -2.138479        -1.208857        -0.786073
 C        -0.896666        -1.367436        -0.013211
 C         0.055805        -0.087074        -0.101546
 O         1.255765        -0.187403        -0.039047
 C        -0.676326         1.280908        -0.158211
 C        -1.967639         1.378462        -0.997784
 H        -4.587023         0.118540        -0.897185
 H        -2.439624        -1.291150        -3.187348
 H        -0.875685        -0.493275        -2.494302
 H        -2.939640        -1.989482        -0.645589
 H        -1.018228        -1.484760         1.126312
 H        -0.177766        -2.189195        -0.217879
 H        -1.136856         1.374550         0.954133
 H         0.030076         2.132459        -0.324054
 H        -2.692376         2.160818        -0.599883
 H        -1.738364         1.921634        -1.935892
