19
Iteration:  2444
 O        -4.079633         0.288890        -1.498752
 C        -2.652287         0.040725        -1.419810
 C        -2.089267        -1.042997        -2.332528
 C        -2.126081        -1.244810        -0.843748
 C        -0.758718        -1.290843        -0.262073
 C         0.059032         0.025770        -0.017402
 O         1.291274        -0.115096         0.198753
 C        -0.718516         1.296416        -0.148187
 C        -1.878283         1.382167        -1.134578
 H        -4.500391        -0.641382        -1.733723
 H        -3.043965        -1.408457        -2.925695
 H        -1.124048        -1.083252        -2.851326
 H        -2.895562        -1.965514        -0.441394
 H        -0.810880        -1.560081         0.798375
 H        -0.087587        -2.149609        -0.521430
 H        -1.304354         1.234499         0.800773
 H        -0.115587         2.259168        -0.286424
 H        -2.568421         2.117930        -0.862339
 H        -1.523680         1.704060        -2.072559
