19
Iteration:  4944charge 0 multiplicity 1
 O        -4.048477         0.021199        -1.118635
 C        -2.721165         0.123431        -1.324170
 C        -2.095223        -0.576095        -2.559402
 C        -2.000773        -1.161049        -1.151001
 C        -0.721102        -1.340684        -0.338025
 C         0.040567        -0.122471         0.034619
 O         1.028724        -0.122076         0.655543
 C        -0.441352         1.168009        -0.847384
 C        -1.992285         1.332192        -0.839051
 H        -4.610598        -0.007447        -1.872099
 H        -2.769874        -1.128706        -3.235402
 H        -1.293669         0.048360        -3.079121
 H        -2.655875        -2.024795        -1.049079
 H        -1.073552        -1.817030         0.610375
 H         0.132590        -2.072817        -0.753441
 H        -0.055221         2.145979        -0.460893
 H        -0.150071         0.950799        -1.955938
 H        -2.450239         1.447147         0.103521
 H        -2.148869         2.264525        -1.367819
