19
Iteration:  1305
 O        -3.946222         0.146057        -1.746671
 C        -2.598354         0.104013        -1.356850
 C        -1.866432        -0.892382        -2.198033
 C        -2.150791        -1.216482        -0.826886
 C        -0.900439        -1.342223         0.138392
 C        -0.064580        -0.057908        -0.057434
 O         1.125377        -0.120347        -0.400717
 C        -0.766483         1.247373         0.119106
 C        -1.798625         1.371502        -1.043395
 H        -4.549290         0.627031        -1.017337
 H        -2.370468        -1.419585        -2.980479
 H        -0.826214        -0.645550        -2.388069
 H        -3.046927        -1.770880        -0.654809
 H        -1.251207        -1.305949         1.146647
 H        -0.319549        -2.183096        -0.201348
 H        -1.329588         1.160181         1.020282
 H         0.061300         1.930331         0.112795
 H        -2.631699         2.093479        -0.859300
 H        -1.414641         1.806420        -1.943621
