19
Iteration:  1785
 O        -4.012119         0.296135        -1.290100
 C        -2.677106         0.034853        -1.428533
 C        -2.015474        -1.037137        -2.353619
 C        -2.162463        -1.299160        -0.870445
 C        -0.796002        -1.354469        -0.194864
 C        -0.018200        -0.005414        -0.126248
 O         1.145534        -0.020282         0.192985
 C        -0.816945         1.273895        -0.102163
 C        -1.675093         1.343677        -1.300121
 H        -4.267993         1.181214        -1.483075
 H        -2.541194        -1.700140        -2.967038
 H        -1.119310        -0.985329        -2.951731
 H        -2.834482        -2.139675        -0.707765
 H        -0.701014        -1.613412         0.842819
 H        -0.182714        -2.121574        -0.679253
 H        -1.452805         1.084500         0.703999
 H        -0.038684         2.011678         0.113117
 H        -2.383232         2.223703        -1.336257
 H        -1.245125         1.450932        -2.257262
