19
Iteration:  1747
 O        -3.986131         0.295327        -1.364040
 C        -2.550923         0.068125        -1.530695
 C        -2.291287        -1.083509        -2.456161
 C        -2.108535        -1.210113        -0.909014
 C        -0.749655        -1.355024        -0.073980
 C         0.009810        -0.010056         0.034885
 O         1.242463         0.035634         0.036764
 C        -0.852899         1.207003         0.127103
 C        -1.666827         1.323298        -1.293852
 H        -4.406222         0.362784        -2.339354
 H        -3.213944        -1.847830        -2.625095
 H        -1.424525        -1.047475        -3.191600
 H        -2.909184        -1.922461        -0.646480
 H        -1.101328        -1.670379         0.979579
 H        -0.032634        -2.082206        -0.521170
 H        -1.645492         1.165851         0.965667
 H        -0.296434         2.137711         0.339802
 H        -2.262566         2.213582        -1.228665
 H        -0.841082         1.404437        -2.070042
