19
Iteration:  4567
 O        -4.137321         0.260530        -1.391163
 C        -2.757992         0.017781        -1.390591
 C        -2.051221        -0.732938        -2.588284
 C        -2.019226        -1.361253        -1.101377
 C        -0.778336        -1.309648        -0.115827
 C         0.051792        -0.050783        -0.076919
 O         1.212960         0.012157         0.507210
 C        -0.490067         1.212806        -0.754751
 C        -1.989544         1.232688        -0.666766
 H        -4.631222        -0.368251        -0.769529
 H        -2.722472        -1.300943        -3.287764
 H        -1.072022        -0.466426        -2.893045
 H        -2.607781        -2.283351        -1.072901
 H        -1.345263        -1.386769         0.764555
 H        -0.184677        -2.135629        -0.250051
 H        -0.003682         2.158527        -0.350528
 H        -0.317461         1.240319        -1.874569
 H        -2.184302         1.044457         0.408744
 H        -2.290232         2.315740        -0.985451
