19
Iteration:  1641charge 0 multiplicity 1
 O        -3.967383         0.330286        -1.488765
 C        -2.565367         0.027820        -1.497346
 C        -2.076381        -0.978636        -2.406023
 C        -2.130078        -1.303370        -0.927032
 C        -0.851620        -1.231019        -0.034955
 C         0.017717         0.023148         0.024735
 O         1.211309        -0.092116        -0.109776
 C        -0.831057         1.228338         0.123662
 C        -1.762035         1.313367        -1.168276
 H        -4.384372        -0.501969        -1.062020
 H        -2.812749        -1.340075        -3.107908
 H        -1.043738        -1.193088        -2.790608
 H        -2.934319        -1.862443        -0.360244
 H        -1.256094        -1.508165         0.911889
 H        -0.206844        -2.054351        -0.360130
 H        -1.535630         1.126859         1.015282
 H        -0.107922         2.126961         0.169487
 H        -2.539560         2.090124        -0.942326
 H        -1.252231         1.635734        -2.084484
