19
Iteration:  4582
 O        -4.083435         0.205724        -1.329162
 C        -2.643093         0.035564        -1.390479
 C        -2.056205        -0.759619        -2.505842
 C        -2.031089        -1.251433        -1.079307
 C        -0.801836        -1.281836        -0.208982
 C         0.081630        -0.021598        -0.173257
 O         1.050003        -0.047213         0.543972
 C        -0.448153         1.219302        -0.740336
 C        -2.019701         1.216260        -0.711025
 H        -4.453393        -0.594459        -0.831539
 H        -2.706755        -1.267069        -3.157688
 H        -1.243810        -0.356301        -3.115033
 H        -2.696556        -2.095427        -0.879405
 H        -0.958835        -1.396723         0.873440
 H        -0.082797        -2.137657        -0.462271
 H         0.029047         2.104529        -0.237303
 H        -0.084524         1.216940        -1.747798
 H        -2.401512         1.318267         0.287290
 H        -2.412671         2.074498        -1.240989
