19
Iteration:  2378
 O        -3.956964         0.276135        -1.363583
 C        -2.585710         0.010951        -1.513354
 C        -1.995867        -0.966328        -2.426459
 C        -2.119174        -1.337140        -0.873318
 C        -0.837276        -1.316089         0.016774
 C        -0.055472        -0.056100        -0.068916
 O         1.136136        -0.034898        -0.076218
 C        -0.818811         1.285638         0.019011
 C        -1.743297         1.425910        -1.185489
 H        -4.362559        -0.538829        -1.357682
 H        -2.805458        -1.552552        -3.029302
 H        -1.041611        -0.734117        -2.938899
 H        -2.916536        -2.135354        -0.765389
 H        -1.285808        -1.260264         1.032942
 H        -0.128211        -2.177053        -0.126708
 H        -1.469756         1.334326         0.903920
 H        -0.051747         2.137222         0.109279
 H        -2.420454         2.257831        -1.073310
 H        -1.078386         1.530607        -2.139755
