19
Iteration:  4386charge 0 multiplicity 1
 O        -3.958073         0.081102        -1.664562
 C        -2.601638         0.076537        -1.356152
 C        -1.754370        -0.740550        -2.264156
 C        -2.023899        -1.221821        -0.792412
 C        -0.904272        -1.295620         0.119679
 C        -0.026396        -0.133295        -0.076176
 O         1.102425        -0.106382        -0.439192
 C        -0.729985         1.254961         0.019908
 C        -2.016827         1.362451        -0.936386
 H        -4.626877         0.439496        -0.985276
 H        -2.431063        -1.274366        -2.953175
 H        -0.791592        -0.488672        -2.619948
 H        -2.859665        -1.934456        -0.894904
 H        -1.305558        -1.438324         1.058607
 H        -0.378129        -2.255971         0.015272
 H        -1.158850         1.406035         0.998023
 H         0.076981         1.865342        -0.193702
 H        -2.867270         1.931223        -0.324983
 H        -1.836182         1.793632        -1.835710
