19
Iteration:  1123
 O        -4.053913         0.320246        -1.358921
 C        -2.595640         0.060385        -1.495611
 C        -2.294085        -1.021052        -2.386560
 C        -2.071552        -1.243752        -0.938447
 C        -0.689156        -1.356635        -0.259386
 C        -0.007388        -0.053464         0.073596
 O         1.172829        -0.009047         0.260334
 C        -0.802975         1.290754        -0.030719
 C        -1.623872         1.266101        -1.393586
 H        -4.153685         0.470974        -0.338870
 H        -3.028043        -1.736174        -2.909565
 H        -1.636893        -0.822254        -3.189786
 H        -2.863608        -1.868143        -0.576555
 H        -0.833613        -1.884150         0.680442
 H         0.082419        -1.899220        -0.747036
 H        -1.464442         1.234469         0.850162
 H        -0.342670         2.233517        -0.034107
 H        -2.214846         2.168825        -1.495390
 H        -0.993986         1.098733        -2.286359
