19
Iteration:  1260
 O        -3.940885         0.298990        -1.622684
 C        -2.536982         0.063130        -1.437695
 C        -1.936885        -0.974549        -2.347240
 C        -2.061073        -1.243322        -0.840259
 C        -0.906682        -1.355592         0.125888
 C        -0.021982        -0.074922         0.025923
 O         1.128673        -0.087270        -0.309829
 C        -0.776652         1.245163         0.106378
 C        -1.865803         1.364671        -1.141137
 H        -4.440024         0.110100        -0.689591
 H        -2.677948        -1.437792        -3.082349
 H        -1.016848        -0.755220        -2.799312
 H        -2.717948        -1.962659        -0.400526
 H        -1.415921        -1.316383         1.050500
 H        -0.352593        -2.211327        -0.176070
 H        -1.426646         0.953478         0.894812
 H        -0.298575         2.231692         0.210272
 H        -2.490491         2.212476        -0.758223
 H        -1.450712         1.771278        -2.052794
