19
Iteration:  4976
 O        -4.087473         0.130826        -1.201198
 C        -2.728377         0.059142        -1.406642
 C        -2.143985        -0.743809        -2.536238
 C        -2.062038        -1.344063        -1.181874
 C        -0.698689        -1.355842        -0.298057
 C         0.037310        -0.096536        -0.111349
 O         1.127169        -0.056572         0.574210
 C        -0.463170         1.276166        -0.598010
 C        -1.968579         1.287993        -0.786984
 H        -4.317062         0.966758        -1.711806
 H        -2.801351        -1.086536        -3.348715
 H        -1.277278        -0.348812        -3.131188
 H        -2.709934        -2.229062        -1.091129
 H        -1.109466        -1.548841         0.667445
 H         0.122446        -2.143089        -0.567884
 H        -0.203505         2.069786         0.186454
 H         0.097972         1.668316        -1.482456
 H        -2.518368         1.535587         0.128395
 H        -2.156222         2.196821        -1.361717
