19
Iteration:  2479
 O        -4.008924         0.296121        -1.297807
 C        -2.610499         0.095167        -1.437151
 C        -2.101746        -1.032459        -2.412750
 C        -2.087431        -1.267182        -0.916560
 C        -0.725336        -1.428192        -0.140858
 C        -0.030467        -0.050288        -0.006240
 O         1.167980         0.032822         0.193882
 C        -0.723300         1.248277        -0.215206
 C        -1.842814         1.348054        -1.225217
 H        -4.504559        -0.139990        -2.093309
 H        -2.898321        -1.472141        -2.957348
 H        -1.185670        -0.970194        -3.079918
 H        -2.840304        -2.004729        -0.656847
 H        -1.084319        -1.592314         0.896862
 H        -0.076541        -2.183348        -0.633600
 H        -1.237693         1.431113         0.752084
 H        -0.035599         2.079845        -0.132100
 H        -2.426948         2.151559        -0.802681
 H        -1.356579         1.760203        -2.169785
