19
Iteration:  3825
 O        -3.771558         0.323474        -0.704779
 C        -2.542576         0.011337        -1.448687
 C        -2.622016        -1.130692        -2.404138
 C        -1.791136        -1.363247        -1.150346
 C        -0.272824        -1.196344        -0.971125
 C        -0.134843         0.008588         0.033768
 O         0.508407        -0.004027         1.067901
 C        -0.683794         1.250148        -0.525022
 C        -1.659439         1.222544        -1.671321
 H        -3.523516         0.751386         0.212589
 H        -3.718196        -1.471059        -2.451461
 H        -1.937568        -1.207039        -3.213176
 H        -2.365315        -1.661130        -0.283703
 H         0.218057        -2.081628        -0.670165
 H         0.272845        -0.895733        -1.884794
 H        -1.230003         1.732950         0.278916
 H         0.162183         1.984541        -0.694166
 H        -2.523541         2.094867        -1.566863
 H        -1.244395         1.286781        -2.645740
