19
Iteration:  1470charge 0 multiplicity 1
 O        -3.991279         0.094294        -1.689600
 C        -2.638336         0.110125        -1.407651
 C        -1.980338        -0.828588        -2.373733
 C        -2.102126        -1.244142        -0.858241
 C        -0.908412        -1.259267         0.064251
 C         0.063790        -0.043820        -0.051433
 O         1.257483        -0.240102        -0.103928
 C        -0.643946         1.280480        -0.014287
 C        -1.999632         1.427922        -1.027624
 H        -4.450118         0.276625        -0.814036
 H        -2.796768        -1.371704        -2.959952
 H        -1.063448        -0.711005        -2.896778
 H        -2.939248        -1.986952        -0.785013
 H        -1.422222        -1.245110         1.095547
 H        -0.303241        -2.199434        -0.014912
 H        -1.114696         1.532328         1.020379
 H         0.267212         1.844412        -0.296344
 H        -2.744359         2.134960        -0.521429
 H        -1.738870         2.014211        -1.923448
