19
Iteration:  2857
 O        -3.986776         0.223059        -1.490881
 C        -2.582831         0.105798        -1.424550
 C        -2.072111        -0.938926        -2.364255
 C        -2.121210        -1.224848        -0.816569
 C        -0.801833        -1.409454        -0.152139
 C        -0.057005        -0.028224        -0.075543
 O         1.187300         0.071789        -0.090817
 C        -0.903331         1.194666         0.165466
 C        -1.649711         1.269450        -1.260962
 H        -4.246261         0.517498        -0.637640
 H        -2.930929        -1.649448        -2.668612
 H        -1.210555        -0.875013        -2.924174
 H        -2.977253        -1.799468        -0.503814
 H        -0.887191        -1.651950         0.952735
 H        -0.267258        -2.117562        -0.780978
 H        -1.646422         1.022197         1.007724
 H        -0.266321         2.031974         0.631671
 H        -2.188030         2.265884        -1.381976
 H        -0.892853         1.200693        -2.057176
