19
Iteration:   813charge 0 multiplicity 1
 O        -3.745921         0.407171        -0.869699
 C        -2.527723        -0.006508        -1.428661
 C        -2.638074        -1.179584        -2.313316
 C        -1.857685        -1.311778        -0.948070
 C        -0.334233        -1.187495        -0.970578
 C        -0.073608        -0.023367        -0.027224
 O         0.446725        -0.140454         1.073529
 C        -0.601659         1.404479        -0.491954
 C        -1.634300         1.193997        -1.691940
 H        -3.619301         0.799526        -0.034104
 H        -3.573359        -1.619688        -2.485012
 H        -2.049224        -1.207541        -3.256224
 H        -2.293663        -1.772483        -0.090090
 H         0.332491        -1.993322        -0.740598
 H        -0.119097        -0.995859        -2.052654
 H        -1.159365         1.898254         0.300638
 H         0.178829         2.079806        -0.858365
 H        -2.317024         2.110746        -1.641012
 H        -1.166417         1.029908        -2.691924
