19
Iteration:  3304charge 0 multiplicity 1
 O        -3.999959         0.250057        -1.639354
 C        -2.608581         0.031657        -1.439175
 C        -2.142532        -1.030817        -2.382644
 C        -2.105327        -1.257303        -0.827600
 C        -0.741426        -1.277418        -0.039336
 C         0.007565         0.036458        -0.029153
 O         1.248046        -0.054127        -0.185290
 C        -0.861377         1.220610         0.157177
 C        -1.800986         1.321086        -1.090706
 H        -4.248636         0.523648        -0.794693
 H        -2.650794        -1.737983        -2.984987
 H        -1.154288        -0.770949        -2.933229
 H        -2.893163        -1.835920        -0.327503
 H        -0.981846        -1.503037         1.059774
 H        -0.100612        -2.106991        -0.387100
 H        -1.385679         1.214380         1.201025
 H        -0.161530         2.052635         0.064602
 H        -2.614957         1.895626        -0.779008
 H        -1.306371         1.880226        -1.926863
