19
Iteration:  4598
 O        -4.027980         0.113690        -1.285280
 C        -2.661426         0.056167        -1.311344
 C        -2.055693        -0.724812        -2.444001
 C        -2.056184        -1.265060        -1.060985
 C        -0.739602        -1.331779        -0.313921
 C         0.066071        -0.046925        -0.076291
 O         1.025640        -0.106982         0.594941
 C        -0.514244         1.271793        -0.844370
 C        -1.991657         1.384199        -0.863272
 H        -4.364248        -0.687625        -0.887565
 H        -2.941596        -1.050710        -3.181203
 H        -1.034902        -0.565242        -2.831091
 H        -2.750650        -2.073671        -0.798577
 H        -1.020584        -1.778036         0.754571
 H        -0.078479        -2.132508        -0.715716
 H        -0.114144         1.999506        -0.142234
 H         0.009325         1.533321        -1.819344
 H        -2.389685         1.503985         0.219896
 H        -2.411798         2.299568        -1.364986
