19
Iteration:  2308charge 0 multiplicity 1
 O        -3.900401         0.407035        -1.561369
 C        -2.528923        -0.009706        -1.413496
 C        -1.998591        -1.036213        -2.361617
 C        -2.143081        -1.296250        -0.753479
 C        -0.864612        -1.364453         0.019873
 C        -0.073761        -0.058455         0.021645
 O         1.141298         0.105254        -0.298119
 C        -0.891171         1.181003         0.097736
 C        -1.700369         1.336622        -1.150959
 H        -4.499971        -0.344712        -1.518906
 H        -2.831557        -1.490550        -2.888430
 H        -1.017245        -0.942080        -2.827531
 H        -2.921399        -2.064686        -0.512872
 H        -1.021783        -1.453791         1.112229
 H        -0.288458        -2.183341        -0.406504
 H        -1.620264         0.928437         1.009598
 H        -0.265447         2.027377         0.374164
 H        -2.500299         2.138898        -0.986313
 H        -1.038844         1.450583        -1.934703
