19
Iteration:  3669charge 0 multiplicity 1
 O        -3.892050         0.340210        -0.897702
 C        -2.625945         0.024488        -1.563415
 C        -2.544775        -1.143645        -2.425275
 C        -1.997702        -1.278025        -1.099861
 C        -0.489009        -1.230536        -0.753944
 C        -0.024867         0.026958         0.080211
 O         0.935651         0.066518         0.821465
 C        -0.768174         1.264975        -0.221846
 C        -1.590118         1.148104        -1.627635
 H        -3.824259         0.120495        -0.012156
 H        -3.529016        -1.588868        -2.727576
 H        -1.836841        -1.254651        -3.206727
 H        -2.532321        -1.894972        -0.354429
 H        -0.154030        -2.206062        -0.254336
 H         0.086661        -1.078614        -1.685905
 H        -1.557587         1.501197         0.490984
 H        -0.161839         2.219212        -0.220917
 H        -2.301725         2.107770        -1.654280
 H        -0.968154         1.104000        -2.576334
