19
Iteration:  1605
 O        -4.023403         0.295752        -1.495580
 C        -2.593092         0.082758        -1.412197
 C        -1.913073        -0.834080        -2.335873
 C        -2.068330        -1.247859        -0.851001
 C        -0.856101        -1.374369        -0.003268
 C        -0.025753        -0.122551        -0.050891
 O         1.160476        -0.076011        -0.047521
 C        -0.778374         1.160931        -0.105066
 C        -1.877672         1.379128        -1.205702
 H        -4.644518        -0.055046        -0.755430
 H        -2.522178        -1.426288        -3.108521
 H        -0.867738        -0.684436        -2.510682
 H        -2.878758        -1.942412        -0.629195
 H        -1.099192        -1.615916         1.043108
 H        -0.115599        -2.130957        -0.341913
 H        -1.326192         1.335182         0.811037
 H        -0.029921         1.936321        -0.013456
 H        -2.554176         2.135483        -0.905070
 H        -1.368912         1.685475        -2.142408
