19
Iteration:  1829
 O        -4.048612         0.167816        -1.213926
 C        -2.571378         0.042912        -1.501233
 C        -2.226415        -0.957766        -2.555016
 C        -2.075879        -1.210276        -0.947609
 C        -0.839383        -1.263344        -0.102608
 C         0.033499        -0.030019         0.027370
 O         1.266136        -0.106673         0.326871
 C        -0.685027         1.297204        -0.201733
 C        -1.821765         1.322014        -1.302971
 H        -4.352135         0.555442        -2.083328
 H        -3.072241        -1.562702        -3.000977
 H        -1.382240        -0.832103        -3.235512
 H        -2.797229        -1.985905        -0.680365
 H        -1.121779        -1.739927         0.841447
 H        -0.162467        -2.052067        -0.478298
 H        -1.150628         1.392638         0.755400
 H         0.064493         2.070827        -0.480007
 H        -2.424493         2.245649        -1.047336
 H        -1.404266         1.795003        -2.171580
