19
Iteration:  3653
 O        -3.875429         0.426997        -1.011696
 C        -2.594773         0.014451        -1.460990
 C        -2.555626        -1.201816        -2.492120
 C        -1.929206        -1.326963        -1.000059
 C        -0.420768        -1.251784        -0.715380
 C        -0.023995        -0.003525         0.066248
 O         1.024965        -0.005903         0.800050
 C        -0.932260         1.288706        -0.291928
 C        -1.720768         1.292918        -1.569180
 H        -4.007737         0.137591        -0.104880
 H        -3.402865        -1.811070        -2.557114
 H        -1.950357        -0.922667        -3.409982
 H        -2.521776        -1.941514        -0.316780
 H        -0.143839        -2.022155        -0.038816
 H         0.127597        -1.455370        -1.653950
 H        -1.472229         1.478673         0.687297
 H        -0.161175         2.041684        -0.270583
 H        -2.313229         2.115099        -1.728673
 H        -0.984867         1.185167        -2.426601
