19
Iteration:  3434charge 0 multiplicity 1
 O        -4.035885         0.282842        -1.221036
 C        -2.613393         0.060125        -1.443120
 C        -2.191224        -0.943061        -2.502495
 C        -2.104515        -1.290263        -0.934067
 C        -0.687142        -1.331803        -0.293105
 C        -0.002929         0.005703        -0.035113
 O         1.176416         0.000897         0.273133
 C        -0.860846         1.253553        -0.079316
 C        -1.683726         1.285257        -1.357244
 H        -4.218996        -0.044017        -0.248282
 H        -2.823813        -1.833253        -2.778822
 H        -1.237519        -0.929963        -3.137499
 H        -2.801168        -2.095711        -0.607270
 H        -0.755617        -1.794154         0.717930
 H        -0.021801        -1.926584        -0.950455
 H        -1.543046         1.214707         0.719540
 H        -0.333669         2.155421         0.157878
 H        -2.414369         2.056963        -1.474299
 H        -0.938150         1.471095        -2.290618
