19
Iteration:  3494charge 0 multiplicity 1
 O        -3.936168         0.282620        -1.285549
 C        -2.559544         0.015595        -1.436300
 C        -2.420138        -1.092501        -2.432598
 C        -2.092515        -1.288886        -0.976319
 C        -0.641213        -1.212900        -0.511348
 C         0.005578         0.070388        -0.035176
 O         1.169434         0.031083         0.391948
 C        -0.883762         1.260720        -0.016710
 C        -1.653189         1.237397        -1.328887
 H        -4.213093         0.014026        -0.350279
 H        -3.307727        -1.492684        -2.783017
 H        -1.580341        -0.997870        -3.162137
 H        -2.756577        -1.749192        -0.277819
 H        -0.730444        -1.771728         0.475152
 H         0.169864        -1.860897        -0.904661
 H        -1.416608         0.865960         0.918280
 H        -0.199049         2.141544         0.220199
 H        -2.312148         2.134099        -1.676598
 H        -1.010434         1.107830        -2.106233
