19
Iteration:  4121
 O        -4.044547         0.184839        -1.147504
 C        -2.599427         0.103930        -1.447619
 C        -2.237118        -0.986265        -2.480863
 C        -2.069473        -1.247824        -0.933312
 C        -0.633514        -1.374449        -0.386176
 C        -0.042180         0.002116        -0.050094
 O         1.161207        -0.000367         0.408268
 C        -0.838201         1.303239        -0.147384
 C        -1.714344         1.291726        -1.419973
 H        -4.020762         0.592097        -0.214797
 H        -3.044195        -1.676197        -2.920064
 H        -1.380096        -1.038703        -3.109802
 H        -2.786219        -1.963142        -0.510598
 H        -0.374019        -2.098217         0.403791
 H        -0.035947        -1.752398        -1.277873
 H        -1.532183         1.240241         0.726116
 H        -0.210072         2.263140        -0.043170
 H        -2.398420         2.228312        -1.462305
 H        -1.040736         1.423967        -2.162439
