19
Iteration:  3385
 O        -4.083452         0.269089        -1.323200
 C        -2.717074         0.036982        -1.545407
 C        -2.191809        -0.997294        -2.467756
 C        -2.004490        -1.311902        -0.966721
 C        -0.673284        -1.367838        -0.116759
 C         0.016560        -0.018367         0.069989
 O         1.244820         0.009465         0.141059
 C        -0.803177         1.247547        -0.031017
 C        -1.755627         1.323666        -1.312482
 H        -4.009009         0.710669        -0.526658
 H        -2.960656        -1.542482        -3.098747
 H        -1.457889        -0.559959        -3.026769
 H        -2.633308        -2.129807        -0.629551
 H        -1.040956        -1.745276         0.809136
 H         0.046861        -2.049975        -0.579329
 H        -1.523702         1.369770         0.862097
 H        -0.070784         2.077268         0.164789
 H        -2.540163         2.188563        -1.137967
 H        -1.406554         1.548019        -2.279401
