19
Iteration:  2300charge 0 multiplicity 1
 O        -3.920308         0.413453        -1.583966
 C        -2.559172        -0.002042        -1.458937
 C        -2.042249        -1.055067        -2.324069
 C        -2.140880        -1.304021        -0.755002
 C        -0.845580        -1.319874         0.024908
 C        -0.008762        -0.012338        -0.009167
 O         1.135476         0.056185        -0.293883
 C        -0.897673         1.192221         0.193696
 C        -1.694193         1.326582        -1.165207
 H        -4.390009        -0.472999        -1.556706
 H        -2.692304        -1.663515        -2.897877
 H        -0.949447        -1.106761        -2.697670
 H        -3.007625        -1.962115        -0.533969
 H        -1.042771        -1.833553         0.984641
 H        -0.205508        -2.025498        -0.548677
 H        -1.597820         1.031195         1.043112
 H        -0.271673         2.073324         0.375749
 H        -2.509344         2.090712        -0.943555
 H        -1.073327         1.743550        -2.067170
