19
Iteration:  2616
 O        -3.941108         0.367762        -1.338092
 C        -2.612114         0.101258        -1.472051
 C        -2.366547        -1.089403        -2.421857
 C        -2.058229        -1.205288        -0.902020
 C        -0.666501        -1.331849        -0.273447
 C        -0.021299        -0.053294         0.131579
 O         1.180386         0.131364         0.116895
 C        -0.884830         1.164793         0.066827
 C        -1.614009         1.197483        -1.332981
 H        -4.376299        -0.257947        -1.922282
 H        -3.190612        -1.560904        -2.907159
 H        -1.352678        -0.996529        -2.929221
 H        -2.745699        -1.828130        -0.316197
 H        -0.910812        -2.014385         0.576754
 H        -0.049432        -2.000406        -0.889908
 H        -1.654237         1.183065         0.809342
 H        -0.240387         2.066804         0.248542
 H        -2.282740         2.143557        -1.179734
 H        -0.902344         1.168726        -2.293081
