19
Iteration:   623
 O        -4.012994         0.415357        -1.121032
 C        -2.642528         0.012673        -1.404661
 C        -2.443760        -1.125605        -2.336457
 C        -2.050661        -1.309016        -0.927145
 C        -0.524488        -1.298067        -0.689936
 C        -0.051296         0.049645         0.032571
 O         0.975830        -0.025398         0.717456
 C        -0.743441         1.313615        -0.226056
 C        -1.523067         1.142512        -1.577320
 H        -3.860575         1.170434        -0.548333
 H        -3.323750        -1.665440        -2.664024
 H        -1.615493        -1.056137        -3.074947
 H        -2.671543        -2.048776        -0.491367
 H         0.002590        -2.190759        -0.274853
 H        -0.067419        -1.265501        -1.693444
 H        -1.596856         1.458528         0.418856
 H        -0.116048         2.223876        -0.237630
 H        -2.019509         2.145444        -1.688805
 H        -0.959538         0.840533        -2.503749
