19
Iteration:  2468charge 0 multiplicity 1
 O        -3.981625         0.272363        -1.374943
 C        -2.565629         0.011939        -1.445803
 C        -2.192212        -0.959644        -2.421096
 C        -2.071326        -1.271998        -0.861490
 C        -0.805540        -1.396302        -0.144934
 C        -0.007734        -0.058318        -0.109665
 O         1.183454         0.041870         0.220180
 C        -0.720272         1.265728        -0.150847
 C        -1.824361         1.367679        -1.175740
 H        -4.362807        -0.321413        -1.997101
 H        -2.915413        -1.567167        -2.928845
 H        -1.232419        -0.701071        -2.952972
 H        -2.945245        -1.654441        -0.368741
 H        -0.807120        -1.820011         0.889446
 H        -0.102007        -2.183356        -0.527981
 H        -1.106916         1.292127         0.878676
 H         0.055257         1.983885        -0.419338
 H        -2.680634         1.980501        -0.972874
 H        -1.447895         1.739812        -2.199099
