19
Iteration:  4224
 O        -3.944814         0.146950        -1.462393
 C        -2.587319         0.106329        -1.336203
 C        -2.070628        -0.967590        -2.379353
 C        -2.096135        -1.292796        -0.901405
 C        -0.827379        -1.330189        -0.158456
 C         0.007776        -0.032072        -0.016622
 O         1.193598        -0.034208        -0.127367
 C        -0.853747         1.308848         0.057634
 C        -1.820348         1.374159        -1.171771
 H        -4.309885         0.201252        -0.558914
 H        -2.625456        -1.622199        -3.110785
 H        -1.012779        -0.858868        -2.657976
 H        -2.813718        -2.057248        -0.518247
 H        -1.135552        -1.468386         0.972471
 H        -0.071116        -2.013564        -0.513622
 H        -1.653239         1.428561         0.873252
 H        -0.130296         2.073031         0.081408
 H        -2.565899         2.086390        -0.962692
 H        -1.249216         1.704391        -2.105796
