19
Iteration:  1311charge 0 multiplicity 1
 O        -3.943041         0.190476        -1.751314
 C        -2.560724         0.091582        -1.354946
 C        -1.872447        -0.864652        -2.233396
 C        -2.190010        -1.296417        -0.801787
 C        -0.887546        -1.337872         0.148456
 C        -0.037868        -0.063133         0.000717
 O         1.114951        -0.113389        -0.414236
 C        -0.804388         1.234062         0.078757
 C        -1.816098         1.388245        -1.072962
 H        -4.478868         0.624169        -1.120482
 H        -2.356699        -1.456448        -3.075824
 H        -0.831360        -0.640233        -2.446979
 H        -3.005631        -2.011025        -0.496200
 H        -1.157503        -1.332492         1.277076
 H        -0.324654        -2.248298        -0.179867
 H        -1.202135         1.263304         1.173095
 H        -0.044560         2.090701        -0.038864
 H        -2.581095         1.988707        -0.516697
 H        -1.302199         1.938181        -1.932318
