19
Iteration:  2082
 O        -4.024676         0.255979        -1.414391
 C        -2.583262         0.096178        -1.541897
 C        -2.134783        -1.113665        -2.364357
 C        -2.118621        -1.224033        -0.792486
 C        -0.755435        -1.332294        -0.177260
 C         0.049793        -0.010828         0.018678
 O         1.270604        -0.096603         0.140113
 C        -0.773795         1.261359        -0.091032
 C        -1.888779         1.401644        -1.205917
 H        -4.464086         0.707199        -2.064383
 H        -2.885580        -1.656366        -3.035821
 H        -1.189479        -1.051020        -2.871908
 H        -2.953432        -1.839260        -0.399471
 H        -0.814191        -1.813184         0.831847
 H        -0.142624        -2.008578        -0.807121
 H        -1.400089         1.354613         0.912441
 H        -0.143342         2.146113        -0.082818
 H        -2.676076         2.060331        -0.917314
 H        -1.364096         1.885795        -2.117794
