19
Iteration:  4374
 O        -3.990040         0.146637        -1.701058
 C        -2.621639         0.016516        -1.317642
 C        -1.773370        -0.790163        -2.290189
 C        -2.040489        -1.231778        -0.871716
 C        -0.924915        -1.336927         0.239354
 C        -0.063082        -0.077978        -0.103178
 O         1.161381        -0.087894        -0.494195
 C        -0.787178         1.218705         0.053999
 C        -1.964634         1.349829        -0.909009
 H        -4.355644         0.539221        -0.953325
 H        -2.155008        -1.442405        -3.105387
 H        -0.920706        -0.302643        -2.538843
 H        -2.626072        -2.160988        -0.739449
 H        -1.225853        -1.184959         1.255512
 H        -0.338438        -2.256817        -0.025771
 H        -0.999821         1.328842         1.118061
 H        -0.162105         2.036641        -0.157845
 H        -2.776777         2.059962        -0.460670
 H        -1.641047         1.933925        -1.716143
