19
Iteration:  3773
 O        -3.899425         0.186921        -0.877069
 C        -2.621043         0.004606        -1.390318
 C        -2.559214        -1.080010        -2.294137
 C        -1.902888        -1.306322        -0.986449
 C        -0.342160        -1.095384        -0.933655
 C        -0.051470         0.078159        -0.041015
 O         0.566054        -0.168627         1.017728
 C        -0.562657         1.407262        -0.490802
 C        -1.597758         1.257249        -1.689977
 H        -3.864187         0.159299         0.170827
 H        -3.553682        -1.644394        -2.284144
 H        -2.006717        -0.879351        -3.156847
 H        -2.448188        -2.125118        -0.439149
 H         0.069524        -1.966832        -0.415790
 H         0.190242        -1.005615        -1.942616
 H        -0.959646         2.051001         0.300071
 H         0.243201         1.987734        -0.890372
 H        -2.232208         2.131233        -1.814406
 H        -1.040575         1.086443        -2.615070
