19
Iteration:  3008
 O        -4.055913         0.259420        -1.613090
 C        -2.639228         0.033189        -1.419628
 C        -2.007201        -0.901076        -2.336018
 C        -2.077013        -1.380023        -0.854634
 C        -0.803956        -1.273202        -0.031243
 C         0.018314        -0.059587        -0.076241
 O         1.275449        -0.111331        -0.054876
 C        -0.732150         1.291764        -0.070758
 C        -1.963931         1.297817        -1.015596
 H        -4.338808         0.865748        -0.903814
 H        -2.552355        -1.380962        -3.174155
 H        -0.923228        -0.538404        -2.626280
 H        -2.740370        -2.176304        -0.575835
 H        -1.132575        -1.390371         1.002833
 H        -0.196508        -2.139050        -0.260578
 H        -1.014278         1.551730         0.903529
 H        -0.078532         2.134287        -0.462677
 H        -2.801906         1.880682        -0.512885
 H        -1.832147         1.985368        -1.865810
