19
Iteration:  1870
 O        -4.034291         0.286390        -1.278267
 C        -2.655772         0.021760        -1.378206
 C        -2.142908        -0.898194        -2.463080
 C        -2.124425        -1.273554        -0.938270
 C        -0.769047        -1.300604        -0.176140
 C         0.051475        -0.014851        -0.062513
 O         1.252066        -0.098308         0.353451
 C        -0.730791         1.227563        -0.235208
 C        -1.817356         1.292114        -1.299947
 H        -4.540146        -0.054509        -2.108213
 H        -2.971135        -1.323654        -3.012364
 H        -1.169231        -0.561669        -2.879980
 H        -2.904821        -1.955190        -0.575241
 H        -0.892156        -1.544060         0.919829
 H        -0.127338        -2.058916        -0.676428
 H        -1.156725         1.496645         0.803795
 H        -0.017900         2.113686        -0.343849
 H        -2.634585         2.019425        -1.165405
 H        -1.363446         1.485734        -2.306015
