19
Iteration:  3168
 O        -3.987932         0.167589        -1.764454
 C        -2.552151         0.068836        -1.401036
 C        -1.832351        -0.821888        -2.220180
 C        -2.063057        -1.281704        -0.751740
 C        -0.837472        -1.300458         0.133857
 C        -0.032195        -0.078658        -0.022685
 O         1.153577        -0.225187        -0.410202
 C        -0.829429         1.261292        -0.041121
 C        -2.020395         1.458294        -0.940519
 H        -4.431419         0.608198        -0.983924
 H        -2.261528        -1.321736        -2.964230
 H        -0.711047        -0.642579        -2.377835
 H        -2.673556        -2.088835        -0.333324
 H        -1.049005        -1.540675         1.198004
 H        -0.292274        -2.138593        -0.379984
 H        -1.196014         1.454912         0.997340
 H        -0.109993         2.113001        -0.162719
 H        -2.720358         1.952226        -0.348056
 H        -1.764256         2.124674        -1.759333
