19
Iteration:  4268
 O        -3.999535         0.256799        -1.621923
 C        -2.628980        -0.021890        -1.384206
 C        -1.928356        -0.941525        -2.334003
 C        -2.050517        -1.270889        -0.835703
 C        -0.790980        -1.309765         0.042754
 C         0.061080        -0.045961        -0.023737
 O         1.178717        -0.001673        -0.404397
 C        -0.925929         1.191970         0.186017
 C        -1.856474         1.327041        -1.095662
 H        -4.258058         0.666628        -0.809017
 H        -2.703242        -1.419013        -3.057545
 H        -1.045925        -0.504316        -2.739853
 H        -2.715852        -2.103427        -0.500876
 H        -1.177943        -1.077709         1.120853
 H        -0.287258        -2.247822         0.151870
 H        -1.660073         0.956291         1.019614
 H        -0.296047         2.015589         0.430963
 H        -2.608843         1.996226        -0.780417
 H        -1.229870         1.763336        -1.907734
