19
Iteration:  3175
 O        -4.020756         0.231756        -1.765399
 C        -2.596235         0.099478        -1.385335
 C        -1.764749        -0.870834        -2.285319
 C        -2.052714        -1.301759        -0.747986
 C        -0.832101        -1.340338         0.191411
 C        -0.015263        -0.059779        -0.069164
 O         1.139682        -0.193162        -0.408711
 C        -0.815866         1.237196         0.016095
 C        -2.017353         1.429021        -0.963314
 H        -4.440676         0.509445        -0.850413
 H        -2.364605        -1.409906        -3.080106
 H        -0.722186        -0.641906        -2.399840
 H        -2.855570        -2.050135        -0.452983
 H        -1.026199        -1.534457         1.231644
 H        -0.046433        -2.029563        -0.112132
 H        -1.061257         1.403167         1.039358
 H        -0.160795         2.010248        -0.292926
 H        -2.850534         2.036823        -0.380645
 H        -1.806730         2.043279        -1.822430
