19
Iteration:   217charge 0 multiplicity 1
 O        -3.980188         0.156909        -1.493941
 C        -2.604842         0.106139        -1.489823
 C        -1.927731        -1.055762        -2.434185
 C        -2.079155        -1.207587        -0.880559
 C        -1.027060        -1.110711         0.205681
 C         0.012519        -0.032412        -0.020463
 O         1.197362        -0.189235        -0.254277
 C        -0.740693         1.268035        -0.017449
 C        -1.819737         1.396244        -1.131087
 H        -4.143517        -0.128269        -0.678066
 H        -2.609464        -1.633252        -3.026775
 H        -0.939016        -1.043428        -2.784809
 H        -2.906856        -1.856040        -0.533929
 H        -1.533026        -1.010248         1.186510
 H        -0.519607        -2.050520         0.214737
 H        -1.153370         1.289549         1.036782
 H        -0.194955         2.199093        -0.182165
 H        -2.570467         2.105004        -0.843759
 H        -1.222979         1.553656        -2.022072
