19
Iteration:  3312
 O        -3.958608         0.219429        -1.613875
 C        -2.593581         0.079485        -1.505637
 C        -2.170463        -1.066705        -2.357726
 C        -2.088995        -1.213236        -0.845527
 C        -0.767006        -1.329024        -0.054072
 C         0.087387        -0.060860         0.029592
 O         1.258390        -0.047204        -0.166390
 C        -0.866316         1.306169         0.195602
 C        -1.864823         1.330638        -1.112963
 H        -4.466402         0.419380        -0.847587
 H        -2.998592        -1.680828        -2.886921
 H        -1.319676        -0.855120        -2.988943
 H        -2.947109        -1.809418        -0.617585
 H        -0.759093        -1.512600         1.043646
 H        -0.080457        -2.015348        -0.594637
 H        -1.297020         1.366043         1.178001
 H        -0.228406         2.233482         0.125998
 H        -2.706748         1.996401        -0.917853
 H        -1.382306         1.819765        -2.014969
