19
Iteration:   504charge 0 multiplicity 1
 O        -3.929516         0.372630        -1.212024
 C        -2.572860         0.024374        -1.515017
 C        -2.419444        -1.200438        -2.402149
 C        -2.080260        -1.191557        -0.924908
 C        -0.693971        -1.332155        -0.382666
 C         0.048965         0.022511         0.018934
 O         1.224639        -0.003891         0.380341
 C        -0.869654         1.230118        -0.076169
 C        -1.668726         1.297467        -1.387908
 H        -4.323140         0.715919        -2.126097
 H        -3.336208        -1.749715        -2.726959
 H        -1.646698        -1.229784        -3.127214
 H        -2.748552        -1.705803        -0.291830
 H        -0.608296        -1.778829         0.625757
 H        -0.124169        -2.074366        -0.973852
 H        -1.587834         1.203646         0.762587
 H        -0.219062         2.120819         0.004145
 H        -2.481006         2.070846        -1.271734
 H        -1.130393         1.606973        -2.308545
