19
Iteration:  2547
 O        -3.956580         0.211564        -1.268620
 C        -2.595541         0.070959        -1.534427
 C        -2.278255        -1.106648        -2.510474
 C        -2.077306        -1.263985        -0.958462
 C        -0.756598        -1.477105        -0.117240
 C        -0.026421        -0.016598         0.052637
 O         1.190824         0.094751         0.121065
 C        -0.825703         1.312229         0.015430
 C        -1.626423         1.334543        -1.295336
 H        -4.214112         1.080319        -1.363400
 H        -3.171551        -1.478509        -3.035595
 H        -1.407239        -0.984341        -3.070804
 H        -2.976374        -1.764804        -0.621785
 H        -1.194913        -1.641828         0.911992
 H         0.028437        -2.194476        -0.448992
 H        -1.536633         1.442491         0.842680
 H        -0.244975         2.174344         0.103955
 H        -2.399926         2.155687        -1.301493
 H        -0.952304         1.345059        -2.273458
