19
Iteration:  4196
 O        -4.097202         0.236108        -1.407352
 C        -2.650160         0.092108        -1.464027
 C        -2.106707        -0.942630        -2.405695
 C        -2.074330        -1.213520        -0.821193
 C        -0.698020        -1.372134        -0.187484
 C        -0.012792        -0.036340        -0.136245
 O         1.264687        -0.006901         0.119958
 C        -0.831791         1.223556        -0.035689
 C        -1.828320         1.299444        -1.220923
 H        -4.242847        -0.031361        -0.541517
 H        -2.752189        -1.599843        -3.108307
 H        -1.170123        -0.684349        -2.852701
 H        -2.673798        -2.046645        -0.447947
 H        -0.584967        -1.563487         0.853355
 H         0.063949        -2.089194        -0.633967
 H        -1.527039         1.200312         0.763157
 H        -0.103253         2.095111         0.111560
 H        -2.602123         2.083662        -0.999417
 H        -1.228359         1.645175        -2.094374
