19
Iteration:  1247charge 0 multiplicity 1
 O        -3.943421         0.364780        -1.590822
 C        -2.579765         0.023534        -1.403328
 C        -1.930393        -0.991334        -2.371505
 C        -2.093494        -1.310696        -0.867671
 C        -0.878893        -1.330799         0.104471
 C        -0.067421        -0.057403        -0.029486
 O         1.163417        -0.045616        -0.259438
 C        -0.882515         1.217097         0.059065
 C        -1.797178         1.368638        -1.072623
 H        -4.371573         0.270336        -0.812478
 H        -2.664430        -1.604130        -2.904416
 H        -0.964178        -0.841909        -2.893715
 H        -2.888934        -2.073051        -0.900177
 H        -1.106340        -1.486716         1.156321
 H        -0.246534        -2.199170        -0.014604
 H        -1.269455         1.511057         1.021238
 H         0.023725         1.883316        -0.018743
 H        -2.670882         2.029841        -0.949319
 H        -1.167537         1.658210        -1.923910
