19
Iteration:   943charge 0 multiplicity 1
 O        -3.959337         0.357555        -0.935164
 C        -2.647031         0.045318        -1.495045
 C        -2.594895        -1.100652        -2.472802
 C        -1.932237        -1.271509        -1.050772
 C        -0.448321        -1.189512        -0.698057
 C        -0.007299         0.034291         0.095317
 O         0.855892        -0.063300         0.906976
 C        -0.748663         1.309735        -0.358760
 C        -1.538673         1.107479        -1.679491
 H        -3.959535         0.440129         0.107361
 H        -3.594772        -1.580227        -2.396461
 H        -2.008178        -0.968450        -3.329298
 H        -2.507969        -1.803990        -0.308783
 H        -0.020179        -1.999525        -0.114174
 H         0.103615        -1.105348        -1.680141
 H        -1.279575         1.558508         0.578365
 H         0.107391         2.054944        -0.529278
 H        -2.001294         1.946538        -2.314564
 H        -0.755788         0.808597        -2.407270
