19
Iteration:  3252
 O        -3.997718         0.138593        -1.600827
 C        -2.583635         0.154795        -1.413297
 C        -1.853547        -0.901626        -2.303616
 C        -2.078979        -1.200180        -0.838419
 C        -0.799720        -1.343876         0.117344
 C        -0.055515        -0.074752         0.015793
 O         1.072239        -0.100963        -0.345870
 C        -0.806789         1.198622         0.048141
 C        -1.864294         1.392491        -1.108480
 H        -4.253323         0.466296        -0.749367
 H        -2.492909        -1.300706        -3.044917
 H        -0.798867        -0.608468        -2.680830
 H        -2.861066        -1.938254        -0.539461
 H        -0.997328        -1.622052         1.147383
 H        -0.183815        -2.154363        -0.249613
 H        -1.389727         1.163252         0.970318
 H        -0.106541         1.994715         0.078165
 H        -2.724024         2.177251        -0.792624
 H        -1.439789         1.787450        -2.022321
