19
Iteration:    78charge 0 multiplicity 1
 O        -4.027802         0.237393        -1.464307
 C        -2.668720         0.111588        -1.362981
 C        -1.838779        -0.883247        -2.252707
 C        -2.124357        -1.223488        -0.803637
 C        -0.898291        -1.353741         0.072282
 C         0.018384        -0.122096        -0.101831
 O         1.214535        -0.101342        -0.012759
 C        -0.750659         1.219968        -0.265047
 C        -1.917228         1.401338        -1.349471
 H        -4.493875        -0.039995        -0.590559
 H        -2.240456        -1.638988        -2.862629
 H        -0.863497        -0.378433        -2.440521
 H        -2.883046        -2.021773        -0.780199
 H        -1.162255        -1.352015         1.143074
 H        -0.307384        -2.284610        -0.040447
 H        -1.319753         1.226736         0.669054
 H        -0.029038         2.022513        -0.290140
 H        -2.556405         2.094493        -0.910611
 H        -1.538347         1.670489        -2.313356
