19
Iteration:  4755
 O        -4.005942         0.200132        -0.957046
 C        -2.621567         0.022792        -1.284113
 C        -2.316129        -0.677325        -2.623646
 C        -1.936154        -1.253092        -1.250758
 C        -0.537043        -1.399980        -0.573144
 C         0.084699        -0.103246        -0.045301
 O         0.694216         0.059254         0.994633
 C        -0.298596         1.142830        -0.980943
 C        -1.928323         1.310441        -0.915883
 H        -4.492876        -0.554008        -1.250235
 H        -3.192492        -1.113274        -3.084784
 H        -1.650179        -0.252682        -3.204687
 H        -2.564615        -2.141115        -0.957455
 H        -0.824857        -1.908832         0.318675
 H         0.203985        -1.996665        -1.162294
 H         0.118249         2.111061        -0.469381
 H         0.082150         0.950089        -2.031127
 H        -2.204110         1.463342         0.115774
 H        -2.422948         2.068500        -1.543834
