19
Iteration:    77charge 0 multiplicity 1
 O        -4.019359         0.242142        -1.459526
 C        -2.674660         0.113623        -1.373316
 C        -1.836065        -0.882176        -2.254959
 C        -2.123234        -1.226017        -0.801787
 C        -0.894894        -1.354076         0.076166
 C         0.022954        -0.119009        -0.107463
 O         1.215914        -0.106850        -0.010414
 C        -0.759263         1.211519        -0.260845
 C        -1.922834         1.402884        -1.353438
 H        -4.513111        -0.054328        -0.554063
 H        -2.202272        -1.615653        -2.885485
 H        -0.908846        -0.365411        -2.447112
 H        -2.873258        -2.003614        -0.785602
 H        -1.167649        -1.333717         1.159267
 H        -0.305892        -2.267826        -0.014224
 H        -1.311414         1.229749         0.697000
 H        -0.042568         2.026168        -0.319521
 H        -2.593182         2.112657        -0.927673
 H        -1.532286         1.625010        -2.306083
