19
Iteration:   629
 O        -4.019489         0.427417        -1.137836
 C        -2.701149        -0.004787        -1.426477
 C        -2.410961        -1.125790        -2.343800
 C        -2.051143        -1.331199        -0.941200
 C        -0.521443        -1.253941        -0.732419
 C         0.015314         0.076217         0.073408
 O         0.989095        -0.061337         0.751567
 C        -0.738116         1.333936        -0.241748
 C        -1.554218         1.097019        -1.562674
 H        -3.894186         1.249366        -0.413504
 H        -3.444943        -1.568275        -2.537436
 H        -1.623663        -1.069913        -3.069521
 H        -2.637906        -2.065298        -0.319737
 H        -0.193855        -2.217027        -0.339254
 H        -0.030375        -1.116050        -1.724247
 H        -1.516882         1.663261         0.546282
 H        -0.133181         2.226625        -0.439734
 H        -2.099165         1.994328        -1.758727
 H        -0.970283         0.826350        -2.430149
