19
Iteration:  4211
 O        -4.017074         0.188623        -1.419359
 C        -2.586860         0.033956        -1.395523
 C        -2.020644        -0.969115        -2.338795
 C        -2.084425        -1.269574        -0.883861
 C        -0.753128        -1.307794        -0.147198
 C        -0.004088         0.026763        -0.075753
 O         1.200821        -0.077691        -0.023844
 C        -0.876577         1.268395        -0.020271
 C        -1.829506         1.404048        -1.204974
 H        -4.403464         0.019301        -0.532822
 H        -2.795920        -1.350072        -2.886458
 H        -1.047050        -0.769376        -2.858162
 H        -2.944877        -1.881662        -0.621588
 H        -0.886995        -1.860935         0.810867
 H        -0.121943        -2.003775        -0.726454
 H        -1.314239         1.058448         1.005284
 H        -0.316927         2.173379         0.095362
 H        -2.505671         2.305661        -1.130136
 H        -1.300565         1.572920        -2.074212
