19
Iteration:   253
 O        -3.975577         0.373038        -1.560971
 C        -2.604160        -0.036167        -1.363270
 C        -1.913768        -0.960634        -2.285298
 C        -2.020582        -1.334501        -0.883874
 C        -0.919394        -1.275637         0.238203
 C        -0.057029        -0.007289        -0.017171
 O         1.128509        -0.126364        -0.271741
 C        -0.779422         1.279474        -0.121957
 C        -1.847620         1.326898        -1.142362
 H        -4.518774         0.006978        -0.961182
 H        -2.581819        -1.518207        -3.011766
 H        -0.860108        -0.745107        -2.661955
 H        -2.676221        -2.222189        -0.658820
 H        -1.389041        -1.226909         1.235587
 H        -0.341212        -2.223342         0.128230
 H        -1.179505         1.465032         0.924535
 H        -0.032019         2.052356        -0.355180
 H        -2.430455         2.328600        -1.146821
 H        -1.297310         1.510090        -2.074694
