19
Iteration:  1202
 O        -3.986296         0.176660        -1.555899
 C        -2.635793         0.182987        -1.512487
 C        -2.135324        -0.974703        -2.332870
 C        -2.053176        -1.193786        -0.833675
 C        -0.795324        -1.342314        -0.047385
 C         0.021792        -0.068903        -0.036539
 O         1.234140        -0.091430        -0.041114
 C        -0.876476         1.202702         0.093904
 C        -1.739977         1.363668        -1.229695
 H        -4.266042         0.672312        -0.854857
 H        -2.857089        -1.481852        -2.906653
 H        -1.102647        -0.821571        -2.775618
 H        -2.924990        -1.714954        -0.371886
 H        -0.947385        -1.670692         0.973973
 H        -0.265008        -2.182950        -0.380647
 H        -1.528941         1.037415         0.931545
 H        -0.495207         2.226761         0.136176
 H        -2.379402         2.232699        -1.062268
 H        -1.184713         1.577637        -2.164081
