19
Iteration:    76charge 0 multiplicity 1
 O        -4.013288         0.246335        -1.453491
 C        -2.679225         0.113570        -1.384077
 C        -1.834061        -0.880149        -2.255710
 C        -2.120999        -1.227609        -0.800425
 C        -0.891524        -1.353666         0.080922
 C         0.025587        -0.115524        -0.113368
 O         1.218322        -0.112578        -0.008013
 C        -0.768371         1.203130        -0.257002
 C        -1.927257         1.403183        -1.354729
 H        -4.514782        -0.059448        -0.545050
 H        -2.172410        -1.602099        -2.926173
 H        -0.948444        -0.356990        -2.458084
 H        -2.866746        -1.987863        -0.786780
 H        -1.172950        -1.314679         1.173423
 H        -0.304225        -2.253855         0.006933
 H        -1.301610         1.236441         0.725601
 H        -0.053536         2.031921        -0.346907
 H        -2.634246         2.142261        -0.944804
 H        -1.522550         1.587166        -2.311310
