19
Iteration:  4413
 O        -3.969155         0.045157        -1.648200
 C        -2.600803         0.057160        -1.384087
 C        -1.860539        -0.868074        -2.323356
 C        -2.073992        -1.252222        -0.847264
 C        -0.902411        -1.290016         0.066812
 C        -0.064620        -0.065695        -0.213395
 O         1.244676        -0.214951        -0.257784
 C        -0.732732         1.375527        -0.014452
 C        -2.052234         1.523616        -0.813456
 H        -4.686371        -0.010584        -0.943063
 H        -2.323528        -1.401155        -3.192122
 H        -0.755045        -0.487484        -2.574672
 H        -2.913183        -1.949119        -0.779216
 H        -1.120534        -1.535653         1.184792
 H        -0.312168        -2.130730        -0.313244
 H        -0.860037         1.472594         1.098279
 H         0.105056         2.122193        -0.359793
 H        -2.810023         1.992386        -0.283653
 H        -1.844433         2.148735        -1.810782
