19
Iteration:  3493charge 0 multiplicity 1
 O        -3.934774         0.285183        -1.283706
 C        -2.563455         0.019141        -1.432384
 C        -2.409214        -1.101709        -2.436569
 C        -2.091790        -1.289350        -0.976911
 C        -0.646636        -1.222599        -0.503852
 C         0.010852         0.078504        -0.038624
 O         1.160371         0.036372         0.389305
 C        -0.874780         1.255304        -0.017795
 C        -1.652095         1.245456        -1.323669
 H        -4.220643         0.017213        -0.402299
 H        -3.350244        -1.471922        -2.764774
 H        -1.605565        -0.959611        -3.158076
 H        -2.739936        -1.766376        -0.279420
 H        -0.747982        -1.809486         0.487607
 H         0.155149        -1.865666        -0.932188
 H        -1.385661         0.843213         0.892836
 H        -0.237426         2.141079         0.209540
 H        -2.325067         2.092908        -1.670098
 H        -0.987954         1.105469        -2.107291
