19
Iteration:  2641
 O        -3.907497         0.455690        -1.315354
 C        -2.615151         0.035364        -1.494283
 C        -2.259475        -1.209098        -2.445413
 C        -2.074679        -1.334866        -0.933723
 C        -0.684691        -1.342643        -0.263232
 C        -0.002753         0.036441        -0.028752
 O         1.224910         0.029927         0.224774
 C        -0.874701         1.278115         0.017620
 C        -1.767917         1.315899        -1.259303
 H        -4.576382        -0.292696        -1.555056
 H        -3.279558        -1.439082        -2.859947
 H        -1.519120        -1.013920        -3.316421
 H        -2.773455        -2.015067        -0.461901
 H        -0.778907        -1.796889         0.715835
 H        -0.085549        -2.065998        -0.869887
 H        -1.498849         1.061928         0.929908
 H        -0.347251         2.250833         0.253237
 H        -2.387286         2.197973        -1.241932
 H        -1.033774         1.284696        -2.049531
