19
Iteration:  2248charge 0 multiplicity 1
 O        -3.964230         0.373317        -1.555361
 C        -2.583040         0.054395        -1.420650
 C        -2.110233        -1.029866        -2.256698
 C        -2.154399        -1.324269        -0.770679
 C        -0.775115        -1.399227        -0.055016
 C         0.005616        -0.058398        -0.048919
 O         1.223822         0.077718        -0.122624
 C        -0.831221         1.192652        -0.012980
 C        -1.788671         1.313672        -1.123809
 H        -4.307811        -0.165159        -2.404232
 H        -2.641324        -1.374861        -3.091630
 H        -1.103671        -0.782318        -2.747538
 H        -3.097869        -1.726577        -0.427759
 H        -0.942959        -1.550377         1.036729
 H        -0.215541        -2.343129        -0.174014
 H        -1.435169         0.931308         0.826636
 H        -0.346391         2.122810         0.335887
 H        -2.364178         2.140781        -0.980410
 H        -1.411517         1.828740        -2.065010
