19
Iteration:   727charge 0 multiplicity 1
 O        -3.825064         0.403026        -0.773555
 C        -2.625967        -0.004238        -1.390560
 C        -2.634001        -1.173596        -2.525863
 C        -1.928049        -1.372925        -1.178784
 C        -0.441918        -1.222556        -0.797385
 C        -0.073838        -0.059376         0.086793
 O         0.691626        -0.014772         1.059130
 C        -0.639854         1.450485        -0.489504
 C        -1.580172         1.155925        -1.698084
 H        -3.611772         0.709580         0.200519
 H        -3.566272        -1.725011        -2.642148
 H        -1.968330        -0.907290        -3.366015
 H        -2.392263        -2.077464        -0.517515
 H        -0.006183        -1.996785        -0.198441
 H         0.180748        -1.174140        -1.731706
 H        -1.088517         2.003136         0.337528
 H         0.208523         2.001076        -0.862355
 H        -2.153133         2.039845        -2.054380
 H        -0.963384         0.909768        -2.562876
