19
Iteration:  4236charge 0 multiplicity 1
 O        -4.000259         0.161298        -1.495810
 C        -2.552510         0.003847        -1.465154
 C        -2.030842        -0.967296        -2.391214
 C        -2.102675        -1.280195        -0.883019
 C        -0.786300        -1.343183        -0.040851
 C        -0.062047        -0.056566        -0.025464
 O         1.184670         0.042174        -0.209762
 C        -0.812782         1.297636         0.111456
 C        -1.785973         1.345570        -1.092743
 H        -4.318868         0.425977        -0.550730
 H        -2.872683        -1.302184        -3.111905
 H        -1.110514        -0.687462        -2.874560
 H        -2.962548        -1.928255        -0.605515
 H        -1.113349        -1.452577         1.078825
 H        -0.284851        -2.286352        -0.202124
 H        -1.337250         1.370465         1.125094
 H        -0.108150         2.118859         0.091161
 H        -2.512170         2.077589        -0.937201
 H        -1.291140         1.685595        -2.095875
