19
Iteration:  2881
 O        -3.984546         0.278562        -1.399384
 C        -2.537542         0.027297        -1.491584
 C        -2.085686        -1.030537        -2.509020
 C        -2.063309        -1.277436        -0.891399
 C        -0.763189        -1.277853        -0.026285
 C        -0.036482         0.009185         0.012728
 O         1.151967        -0.068645        -0.156110
 C        -0.947598         1.233333         0.167431
 C        -1.726239         1.325819        -1.240821
 H        -4.104758         0.728001        -0.459281
 H        -2.674738        -1.487798        -3.262734
 H        -1.009830        -0.897844        -2.657820
 H        -2.791748        -1.902458        -0.417794
 H        -1.228948        -1.642921         0.932628
 H        -0.112388        -1.992237        -0.543552
 H        -1.531205         1.200763         1.138643
 H        -0.327121         2.102249         0.394900
 H        -2.527132         2.100823        -1.134842
 H        -1.013254         1.591680        -2.167780
