19
Iteration:  3561
 O        -3.988287         0.325586        -1.152894
 C        -2.594410         0.005611        -1.458659
 C        -2.387322        -1.087856        -2.458617
 C        -1.983690        -1.354749        -1.005008
 C        -0.566646        -1.396475        -0.530487
 C         0.049101         0.031147        -0.095572
 O         1.087190         0.054571         0.551596
 C        -0.831029         1.338080        -0.093798
 C        -1.742923         1.257997        -1.404523
 H        -3.973186         0.942194        -0.418789
 H        -3.318723        -1.654349        -2.635338
 H        -1.635557        -0.910339        -3.223594
 H        -2.826514        -1.818598        -0.444333
 H        -0.486364        -1.892402         0.473008
 H         0.105597        -1.915284        -1.257398
 H        -1.558505         1.181276         0.733777
 H        -0.411718         2.388722         0.002234
 H        -2.408746         2.146129        -1.782781
 H        -0.948644         1.205142        -2.047757
