19
Iteration:  1263
 O        -3.951119         0.268585        -1.624486
 C        -2.523129         0.092049        -1.449314
 C        -1.961661        -0.969388        -2.326669
 C        -2.061294        -1.224540        -0.840789
 C        -0.913761        -1.339004         0.125488
 C        -0.029009        -0.083846         0.015171
 O         1.149215        -0.103788        -0.323856
 C        -0.768548         1.249974         0.118558
 C        -1.868589         1.358556        -1.145017
 H        -4.387347         0.105557        -0.796933
 H        -2.590885        -1.404340        -3.097468
 H        -0.969917        -0.718230        -2.729386
 H        -2.771139        -1.898545        -0.391051
 H        -1.474414        -1.353013         1.080965
 H        -0.212812        -2.202898        -0.104385
 H        -1.555133         0.996415         0.856937
 H        -0.349260         2.207423         0.329098
 H        -2.471771         2.135957        -0.700568
 H        -1.431143         1.766448        -2.065592
