19
Iteration:  1651
 O        -3.898585         0.325071        -1.500908
 C        -2.546132         0.065664        -1.385013
 C        -2.141917        -1.041469        -2.528939
 C        -2.195731        -1.226996        -0.871512
 C        -0.845316        -1.255071        -0.026938
 C        -0.010891        -0.011307         0.046376
 O         1.229819        -0.022647        -0.120163
 C        -0.872476         1.196954         0.097858
 C        -1.723823         1.253952        -1.186751
 H        -4.393858        -0.454225        -1.243582
 H        -2.855388        -1.462625        -3.269117
 H        -1.129246        -0.895667        -2.968978
 H        -2.897171        -1.980987        -0.406183
 H        -1.030898        -1.307874         1.027261
 H        -0.218324        -2.107290        -0.275315
 H        -1.426416         1.050215         1.033917
 H        -0.326226         2.137512         0.365295
 H        -2.386484         2.035676        -0.858564
 H        -1.157245         1.651766        -2.019415
