19
Iteration:  3722charge 0 multiplicity 1
 O        -3.854564         0.382878        -0.868702
 C        -2.594091        -0.059659        -1.406435
 C        -2.575138        -1.166775        -2.456524
 C        -1.825121        -1.314775        -1.084469
 C        -0.341053        -1.228480        -0.797694
 C        -0.019503         0.001859        -0.000997
 O         0.698396        -0.047107         0.939090
 C        -0.715701         1.305947        -0.410250
 C        -1.735679         1.285031        -1.613527
 H        -3.771468         0.854008        -0.077354
 H        -3.467516        -1.816795        -2.384153
 H        -2.079172        -0.985784        -3.384857
 H        -2.305699        -1.937663        -0.306004
 H         0.035029        -2.200187        -0.319063
 H         0.142438        -1.031841        -1.746241
 H        -1.295794         1.716867         0.473339
 H        -0.024881         2.199098        -0.544393
 H        -2.391805         2.163902        -1.711605
 H        -1.241233         1.065208        -2.644481
