19
Iteration:  3584charge 0 multiplicity 1
 O        -3.994724         0.248541        -1.155095
 C        -2.616687         0.022815        -1.498205
 C        -2.461720        -1.126640        -2.466107
 C        -2.005178        -1.243966        -0.989143
 C        -0.550894        -1.178252        -0.545037
 C        -0.005302         0.007336         0.116035
 O         1.108450        -0.000376         0.544329
 C        -0.817036         1.237589        -0.168164
 C        -1.640033         1.232408        -1.472678
 H        -4.046221         0.435570        -0.141654
 H        -3.506900        -1.573234        -2.632158
 H        -1.726579        -0.953911        -3.229198
 H        -2.739057        -1.925578        -0.490281
 H        -0.459830        -1.905402         0.276750
 H         0.238184        -1.428585        -1.300751
 H        -1.584881         1.505869         0.624324
 H        -0.143600         2.159615        -0.240393
 H        -2.303247         2.169609        -1.368551
 H        -0.949674         1.406513        -2.227192
