19
Iteration:  4060charge 0 multiplicity 1
 O        -3.919929         0.400926        -1.107796
 C        -2.602800        -0.005604        -1.443146
 C        -2.516181        -1.136818        -2.464805
 C        -2.012536        -1.327508        -1.080553
 C        -0.549629        -1.212165        -0.645815
 C        -0.027466         0.051405         0.104003
 O         1.157793         0.053919         0.568336
 C        -0.923548         1.256271        -0.085314
 C        -1.640740         1.172929        -1.475944
 H        -4.203633         0.255191        -0.203016
 H        -3.494999        -1.601686        -2.657198
 H        -1.624318        -1.316049        -3.112635
 H        -2.541378        -2.080391        -0.483530
 H        -0.290272        -1.941783         0.182086
 H         0.232314        -1.296246        -1.396418
 H        -1.670284         1.320393         0.718373
 H        -0.372908         2.140453        -0.037163
 H        -2.257550         2.027237        -1.710383
 H        -0.871449         0.923156        -2.347503
