19
Iteration:  1926
 O        -3.968428         0.259333        -1.385473
 C        -2.582117         0.001208        -1.435159
 C        -2.224153        -1.042825        -2.366669
 C        -2.175910        -1.220990        -0.886540
 C        -0.814951        -1.281548        -0.202731
 C         0.043053         0.061900        -0.042188
 O         1.272323        -0.044333         0.142466
 C        -0.804888         1.245054        -0.016380
 C        -1.716638         1.303601        -1.225815
 H        -4.325771         0.593047        -2.314263
 H        -3.097576        -1.690591        -2.781464
 H        -1.313212        -1.064322        -2.880567
 H        -2.923159        -1.882552        -0.417174
 H        -0.907632        -1.785922         0.807584
 H        -0.167268        -1.969346        -0.801120
 H        -1.592252         0.788738         0.673023
 H        -0.347853         2.266868         0.206865
 H        -2.431914         2.126430        -1.287818
 H        -1.003764         1.662889        -2.001027
