19
Iteration:  3920charge 0 multiplicity 1
 O        -3.816237         0.315756        -0.852698
 C        -2.584716         0.009354        -1.468754
 C        -2.624271        -1.210699        -2.475431
 C        -1.840468        -1.280944        -1.012700
 C        -0.369591        -1.211443        -0.831057
 C        -0.029212         0.013426        -0.001917
 O         0.637011        -0.092321         0.973155
 C        -0.631272         1.422971        -0.478057
 C        -1.752505         1.327345        -1.584012
 H        -3.840943        -0.103738        -0.032972
 H        -3.308589        -2.130739        -2.240015
 H        -2.037928        -1.074041        -3.366298
 H        -2.421431        -1.917176        -0.336177
 H         0.079789        -2.108967        -0.373737
 H         0.116816        -1.133939        -1.858782
 H        -1.042784         1.656072         0.533291
 H         0.188368         2.170765        -0.655478
 H        -2.278188         2.217125        -1.566782
 H        -1.182375         1.292960        -2.565123
