19
Iteration:  1997charge 0 multiplicity 1
 O        -3.808970         0.332240        -1.172595
 C        -2.439917         0.047081        -1.489500
 C        -2.114110        -1.070950        -2.420226
 C        -2.108860        -1.328573        -0.943983
 C        -0.843123        -1.359799        -0.117354
 C        -0.101591         0.023109        -0.026194
 O         1.123521        -0.011452        -0.062426
 C        -1.080540         1.260285         0.100415
 C        -1.619086         1.306605        -1.320751
 H        -4.295071         0.783368        -2.015111
 H        -2.858524        -1.640752        -3.007642
 H        -1.122150        -1.051593        -2.906634
 H        -2.988554        -1.653243        -0.352815
 H        -1.046335        -1.470812         0.976705
 H        -0.054378        -2.093817        -0.328706
 H        -1.804187         1.049556         0.861517
 H        -0.535073         2.170038         0.220018
 H        -2.262474         2.274341        -1.631888
 H        -0.935983         1.246812        -2.236385
