19
Iteration:  4851
 O        -4.035384         0.105582        -1.128805
 C        -2.653295         0.058957        -1.365800
 C        -2.288603        -0.739025        -2.561413
 C        -2.028204        -1.272541        -1.054835
 C        -0.520328        -1.337064        -0.654284
 C         0.090320        -0.044565        -0.024879
 O         0.805198        -0.053097         0.930226
 C        -0.367501         1.183041        -0.849021
 C        -1.945527         1.313106        -0.897764
 H        -4.231791         0.993372        -0.690805
 H        -3.245095        -1.007882        -3.122134
 H        -1.425272        -0.527722        -3.183919
 H        -2.727397        -2.075783        -0.674271
 H        -0.350673        -2.124786         0.128595
 H         0.124821        -1.538540        -1.542665
 H         0.238877         2.016733        -0.380817
 H        -0.164441         1.079912        -1.864788
 H        -2.277660         1.517178         0.175135
 H        -2.276501         2.154328        -1.532161
