19
Iteration:   185
 O        -3.989844         0.126657        -1.654244
 C        -2.625402         0.102746        -1.366712
 C        -1.999060        -0.878571        -2.228419
 C        -2.165395        -1.288911        -0.701986
 C        -0.849516        -1.334982         0.082089
 C        -0.060809        -0.060355        -0.078724
 O         1.167867        -0.153124        -0.165945
 C        -0.723988         1.316426        -0.116332
 C        -1.787320         1.432488        -1.222659
 H        -4.558210         0.367841        -0.735388
 H        -2.413658        -1.499081        -2.989686
 H        -0.977644        -0.658666        -2.464434
 H        -2.902384        -2.042397        -0.353607
 H        -0.952763        -1.645496         1.153060
 H        -0.096342        -1.980804        -0.350514
 H        -1.249365         1.405557         0.894485
 H        -0.005785         2.140802        -0.122124
 H        -2.409411         2.420415        -0.949998
 H        -1.310810         1.719326        -2.183275
