19
Iteration:  4467
 O        -4.125270         0.216882        -1.614034
 C        -2.646351         0.027050        -1.393641
 C        -1.944829        -0.795234        -2.332115
 C        -1.996016        -1.295094        -0.945355
 C        -0.840872        -1.378553         0.024898
 C         0.037202        -0.097312        -0.115331
 O         1.300251        -0.089623         0.004084
 C        -0.674149         1.320692        -0.289842
 C        -2.058574         1.335290        -0.810236
 H        -4.655892         0.116911        -0.744637
 H        -2.662746        -1.397064        -3.011306
 H        -0.975832        -0.631811        -2.914667
 H        -2.512299        -2.251556        -1.060995
 H        -1.225977        -1.257818         1.002171
 H        -0.405640        -2.306420        -0.093736
 H        -0.605886         1.843566         0.659393
 H         0.076476         1.885176        -0.963136
 H        -2.667491         1.681490        -0.000715
 H        -2.240252         2.154478        -1.583710
