19
Iteration:  2904
 O        -3.925962         0.289531        -1.444803
 C        -2.547345         0.069702        -1.427314
 C        -2.051669        -0.983739        -2.386530
 C        -2.029632        -1.311202        -0.967509
 C        -0.869998        -1.370608         0.015639
 C        -0.022526        -0.079254        -0.037796
 O         1.157637         0.052564        -0.128118
 C        -0.893430         1.199551        -0.002813
 C        -1.764894         1.332123        -1.111783
 H        -4.227845         0.491926        -0.574136
 H        -2.830093        -1.457496        -2.812005
 H        -1.289209        -0.624116        -3.131551
 H        -2.685309        -2.178759        -0.844140
 H        -1.466325        -1.421285         0.958443
 H        -0.249044        -2.267921        -0.181221
 H        -1.405626         1.250441         0.999055
 H        -0.313348         2.071844         0.045302
 H        -2.487943         2.132069        -0.955662
 H        -1.154539         1.531442        -2.130138
