19
Iteration:  4900charge 0 multiplicity 1
 O        -4.033867         0.108943        -1.083002
 C        -2.664325         0.062431        -1.336334
 C        -2.196784        -0.623199        -2.496181
 C        -1.997181        -1.304492        -1.170553
 C        -0.666682        -1.436464        -0.481837
 C         0.092985        -0.057938        -0.183990
 O         0.849069         0.023299         0.830604
 C        -0.425888         1.178883        -0.876206
 C        -1.909358         1.260981        -0.772258
 H        -4.337161         0.772493        -1.718999
 H        -2.774036        -1.142623        -3.190186
 H        -1.305803        -0.168129        -3.052882
 H        -2.720831        -2.061785        -1.019314
 H        -0.851642        -1.846562         0.525448
 H        -0.030410        -2.228245        -1.140083
 H        -0.037678         2.034420        -0.233065
 H         0.038028         1.190197        -1.965822
 H        -2.150654         1.518789         0.234299
 H        -2.240812         2.125861        -1.352971
