19
Iteration:  3537
 O        -3.946324         0.326567        -1.159195
 C        -2.645420         0.037479        -1.402327
 C        -2.353966        -1.015864        -2.484953
 C        -2.011666        -1.298290        -0.990807
 C        -0.597391        -1.324704        -0.453091
 C        -0.046685        -0.046420         0.031959
 O         1.129978         0.136627         0.444755
 C        -0.823965         1.124217        -0.109196
 C        -1.741427         1.235546        -1.455029
 H        -4.052070         0.962793        -0.488301
 H        -3.050481        -1.633891        -2.907825
 H        -1.348485        -0.928822        -2.937252
 H        -2.678643        -1.903909        -0.398955
 H        -0.411732        -2.121630         0.361532
 H         0.027285        -1.628493        -1.329439
 H        -1.659760         1.187276         0.546941
 H        -0.222357         2.051204         0.023618
 H        -2.349535         2.206563        -1.564553
 H        -1.112379         1.137959        -2.294044
