19
Iteration:  3285
 O        -4.010138         0.277744        -1.590635
 C        -2.616524         0.075177        -1.355082
 C        -1.909312        -0.993431        -2.250123
 C        -2.116622        -1.323561        -0.866820
 C        -0.880052        -1.327705        -0.002773
 C        -0.017122        -0.069515        -0.126619
 O         1.231680         0.044576        -0.218007
 C        -0.823787         1.189030         0.050896
 C        -1.846032         1.321442        -1.081314
 H        -4.354153         0.758141        -0.852659
 H        -2.580540        -1.311193        -2.984379
 H        -0.912201        -0.906388        -2.817422
 H        -2.833952        -2.179978        -0.747096
 H        -1.017808        -1.236596         1.075133
 H        -0.265862        -2.184318        -0.254810
 H        -1.366196         0.880400         0.987477
 H        -0.295102         2.087092         0.294084
 H        -2.581786         2.270628        -0.959767
 H        -1.383880         1.487117        -2.036144
