19
Iteration:    94charge 0 multiplicity 1
 O        -4.095360         0.157463        -1.592286
 C        -2.599608         0.081797        -1.383400
 C        -1.952719        -0.970495        -2.254927
 C        -2.122597        -1.230571        -0.765191
 C        -0.888844        -1.330059         0.048264
 C        -0.010960        -0.042068        -0.086686
 O         1.183496        -0.082837        -0.031782
 C        -0.662890         1.268161        -0.231691
 C        -1.800261         1.427456        -1.171342
 H        -4.512382         0.091493        -0.587500
 H        -2.675709        -1.298358        -3.093218
 H        -0.925892        -0.975564        -2.655819
 H        -2.940764        -1.882657        -0.438266
 H        -1.119658        -1.594825         1.094297
 H        -0.293173        -2.147973        -0.398490
 H        -1.074273         1.470094         0.787541
 H         0.143470         2.051682        -0.352889
 H        -2.564887         2.192141        -0.771933
 H        -1.555051         1.725123        -2.269353
