19
Iteration:  4914charge 0 multiplicity 1
 O        -4.108115         0.035886        -1.098994
 C        -2.682864         0.082933        -1.194241
 C        -2.074339        -0.589861        -2.556061
 C        -2.020558        -1.228556        -1.184344
 C        -0.692257        -1.402329        -0.466670
 C         0.018546        -0.104089        -0.117676
 O         0.907903        -0.006790         0.772900
 C        -0.342907         1.146965        -0.878999
 C        -1.926875         1.337176        -0.789922
 H        -4.581968         0.257602        -1.929458
 H        -2.971712        -0.955309        -3.207617
 H        -1.154558        -0.093102        -2.967883
 H        -2.671295        -2.127702        -1.042208
 H        -0.929547        -1.869225         0.567273
 H         0.020896        -2.128069        -0.840195
 H         0.158921         1.992651        -0.560800
 H        -0.110891         1.088903        -2.031868
 H        -2.287941         1.529028         0.223196
 H        -2.186126         2.206071        -1.496686
