19
Iteration:  1344
 O        -3.904722         0.329402        -1.806593
 C        -2.577558         0.062933        -1.344370
 C        -1.868012        -1.013235        -2.287244
 C        -2.067170        -1.281416        -0.796333
 C        -0.900128        -1.260785         0.126283
 C        -0.073652        -0.067153        -0.121542
 O         1.124299        -0.146667        -0.366715
 C        -0.780447         1.235866         0.079455
 C        -1.910278         1.333613        -0.936388
 H        -4.492746         0.683977        -1.106296
 H        -2.471905        -1.830135        -2.860868
 H        -0.909049        -0.724105        -2.657904
 H        -2.910766        -1.985327        -0.572302
 H        -1.207203        -1.231874         1.235504
 H        -0.336001        -2.222175         0.181744
 H        -1.040786         1.309284         1.211423
 H        -0.261524         2.241519        -0.140149
 H        -2.653316         1.845168        -0.274948
 H        -1.660758         2.145235        -1.714149
