19
Iteration:  1423
 O        -3.959222         0.238302        -1.635779
 C        -2.606900         0.041684        -1.368913
 C        -1.792891        -0.851471        -2.313374
 C        -2.106161        -1.288971        -0.869767
 C        -0.933265        -1.325389         0.133012
 C         0.004637        -0.182572        -0.030931
 O         1.213626        -0.199417        -0.251166
 C        -0.784827         1.384259        -0.089301
 C        -1.995055         1.389006        -1.004750
 H        -4.263028         0.515896        -0.624872
 H        -2.228347        -1.351157        -3.121927
 H        -0.794829        -0.366460        -2.563985
 H        -2.772074        -2.122984        -0.900859
 H        -1.479695        -1.218625         1.162071
 H        -0.729024        -2.378985        -0.045810
 H        -1.110181         1.399418         1.023329
 H        -0.037128         2.181576        -0.423040
 H        -2.870678         2.063135        -0.634784
 H        -1.768414         1.925605        -1.969137
