19
Iteration:   717charge 0 multiplicity 1
 O        -3.817795         0.399476        -0.779605
 C        -2.600466         0.028070        -1.338940
 C        -2.477920        -1.149255        -2.465735
 C        -1.954024        -1.350595        -1.101624
 C        -0.447224        -1.257604        -0.812129
 C        -0.081324         0.089753         0.026957
 O         0.669955        -0.094806         0.985967
 C        -0.695590         1.362607        -0.510342
 C        -1.641884         1.211367        -1.715257
 H        -3.788338         0.806091         0.101680
 H        -3.408352        -1.643164        -2.746143
 H        -1.729351        -1.168439        -3.309014
 H        -2.487029        -2.034880        -0.488186
 H        -0.212083        -2.110197        -0.180014
 H         0.284514        -1.425724        -1.625716
 H        -1.182421         1.861354         0.353117
 H         0.238360         1.889155        -0.713772
 H        -2.099319         2.148936        -1.905598
 H        -1.050242         0.872355        -2.535771
