19
Iteration:  2139charge 0 multiplicity 1
 O        -4.094183         0.271804        -1.321410
 C        -2.651118         0.007342        -1.375024
 C        -2.024408        -0.947966        -2.395160
 C        -2.062770        -1.269008        -0.966180
 C        -0.844323        -1.325343        -0.077758
 C         0.079001        -0.013274        -0.081428
 O         1.267865        -0.134350         0.237891
 C        -0.703929         1.356206        -0.229376
 C        -1.952228         1.280627        -1.241820
 H        -4.402237         0.663681        -2.251817
 H        -2.528032        -1.687372        -3.083592
 H        -1.009823        -0.534916        -2.682961
 H        -2.677042        -2.129575        -0.751636
 H        -1.132957        -1.541112         0.991661
 H        -0.323128        -2.189329        -0.542328
 H        -1.230588         1.504414         0.839420
 H        -0.037440         2.228750        -0.489225
 H        -2.685391         2.083054        -0.872030
 H        -1.397070         1.614212        -2.205947
