19
Iteration:  2810
 O        -3.993674         0.409435        -1.509541
 C        -2.610425        -0.028438        -1.483847
 C        -2.225378        -1.198272        -2.445673
 C        -2.105619        -1.218443        -0.828480
 C        -0.735068        -1.327012        -0.180149
 C         0.066283         0.014182        -0.053275
 O         1.272514         0.000019         0.048321
 C        -0.902301         1.252807         0.108926
 C        -1.784383         1.295893        -1.188352
 H        -4.174101         0.767963        -0.547569
 H        -2.970246        -1.712374        -2.933422
 H        -1.221083        -0.923875        -3.002035
 H        -2.702027        -2.129813        -0.564337
 H        -0.751907        -1.731844         0.821789
 H        -0.082112        -1.879095        -0.857625
 H        -1.466125         0.987190         1.027984
 H        -0.454167         2.233210         0.433746
 H        -2.558257         2.018862        -1.117958
 H        -1.079026         1.613429        -1.839584
