19
Iteration:  4482charge 0 multiplicity 1
 O        -4.051820         0.114113        -1.570807
 C        -2.682521         0.073109        -1.345386
 C        -1.919531        -0.787508        -2.396328
 C        -2.043893        -1.323604        -0.964334
 C        -0.822365        -1.252715        -0.047180
 C         0.034323        -0.045563        -0.080778
 O         1.206132        -0.160905         0.055676
 C        -0.581505         1.255960        -0.385378
 C        -2.126925         1.353618        -0.799574
 H        -4.417120         0.332750        -0.736594
 H        -2.484252        -1.178509        -3.222133
 H        -1.012601        -0.360869        -2.673142
 H        -2.887585        -1.941114        -0.614436
 H        -1.191755        -1.481420         1.018212
 H         0.009598        -2.063135        -0.166197
 H        -0.417080         1.862980         0.581932
 H         0.026590         1.720557        -1.117371
 H        -2.725114         1.617771         0.089076
 H        -2.223775         2.226334        -1.500929
