19
Iteration:  4982charge 0 multiplicity 1
 O        -4.083762         0.142209        -1.241127
 C        -2.695899         0.025675        -1.402348
 C        -2.141446        -0.764454        -2.533006
 C        -2.056555        -1.314710        -1.142237
 C        -0.726870        -1.361714        -0.325833
 C         0.066781        -0.062387        -0.069691
 O         1.102587        -0.062560         0.505613
 C        -0.460623         1.317757        -0.544580
 C        -1.991790         1.258389        -0.809727
 H        -4.110281         1.101092        -1.610574
 H        -2.929882        -1.011590        -3.257497
 H        -1.210565        -0.385849        -2.920272
 H        -2.653898        -2.209972        -1.059298
 H        -1.093088        -1.635767         0.727317
 H        -0.055321        -2.127646        -0.595110
 H        -0.109066         1.979955         0.246640
 H         0.182639         1.637534        -1.396745
 H        -2.396024         1.397641         0.263878
 H        -2.417723         2.065137        -1.481379
