19
Iteration:   545
 O        -3.915230         0.509519        -1.108673
 C        -2.620559        -0.043949        -1.398723
 C        -2.311568        -0.973632        -2.460645
 C        -2.085778        -1.241180        -0.913892
 C        -0.639013        -1.371347        -0.466459
 C        -0.047064         0.001773         0.036284
 O         1.106708         0.039375         0.439593
 C        -0.911562         1.318029        -0.144546
 C        -1.580517         1.041886        -1.477139
 H        -4.381984        -0.303660        -0.937118
 H        -3.115096        -1.699209        -2.900779
 H        -1.580614        -0.838939        -3.246704
 H        -2.792227        -1.956160        -0.541910
 H        -0.810760        -2.091302         0.367706
 H         0.108567        -1.882466        -1.078492
 H        -1.627670         1.605739         0.589838
 H        -0.282437         2.177804        -0.251019
 H        -2.065319         1.872876        -1.964668
 H        -0.726283         0.850287        -2.201840
