19
Iteration:  3362charge 0 multiplicity 1
 O        -4.052748         0.303849        -1.411490
 C        -2.627364         0.015872        -1.365488
 C        -2.011592        -0.913334        -2.376639
 C        -2.073926        -1.250000        -0.840968
 C        -0.760456        -1.398965        -0.221981
 C         0.017252        -0.001990        -0.111017
 O         1.244505         0.024507         0.115240
 C        -0.915886         1.173450        -0.090538
 C        -1.811406         1.277454        -1.239755
 H        -4.262644         0.699843        -0.461877
 H        -2.715272        -1.569170        -2.961208
 H        -1.046567        -0.758368        -2.741415
 H        -2.834365        -2.016544        -0.615204
 H        -0.939295        -1.641155         0.831734
 H        -0.184698        -2.178919        -0.724663
 H        -1.292131         1.035672         0.994764
 H        -0.343185         2.108727         0.043154
 H        -2.490640         2.209369        -1.308721
 H        -1.320568         1.309635        -2.162496
