19
Iteration:   610charge 0 multiplicity 1
 O        -3.895380         0.376214        -1.103246
 C        -2.554832         0.064148        -1.440324
 C        -2.510098        -1.119133        -2.401942
 C        -2.015610        -1.289297        -0.903163
 C        -0.534256        -1.308057        -0.600789
 C        -0.049065        -0.079799        -0.009929
 O         0.949439         0.043146         0.661897
 C        -0.843148         1.234414        -0.258943
 C        -1.570007         1.246836        -1.568933
 H        -4.070610         1.190451        -0.455774
 H        -3.444224        -1.711257        -2.750260
 H        -1.713482        -1.007184        -3.157081
 H        -2.645924        -1.756103        -0.161270
 H        -0.274409        -2.107258         0.131284
 H         0.060037        -1.411099        -1.531369
 H        -1.481048         1.227219         0.663483
 H        -0.091026         1.974869         0.027963
 H        -2.099269         2.109639        -1.939726
 H        -0.751103         1.072919        -2.330386
