19
Iteration:  4112
 O        -3.990867         0.222112        -1.137053
 C        -2.617251         0.030047        -1.505778
 C        -2.306294        -1.012354        -2.441041
 C        -2.076739        -1.270004        -0.929300
 C        -0.634928        -1.363664        -0.470102
 C         0.030157        -0.032705         0.001142
 O         1.122168         0.051873         0.430653
 C        -0.846330         1.248650        -0.164061
 C        -1.678086         1.327077        -1.425541
 H        -4.122440         0.428898        -0.149265
 H        -3.054291        -1.585431        -3.024753
 H        -1.483838        -0.535757        -2.862174
 H        -2.862497        -1.756078        -0.354853
 H        -0.331070        -1.972815         0.442676
 H         0.097875        -1.730964        -1.179028
 H        -1.638710         1.217069         0.657130
 H        -0.188878         2.098478         0.095638
 H        -2.397479         2.224918        -1.539561
 H        -1.130759         1.381160        -2.352875
