19
Iteration:  1333
 O        -3.888490         0.353751        -1.797382
 C        -2.567412         0.022190        -1.391515
 C        -1.869608        -0.976912        -2.244037
 C        -2.065788        -1.272067        -0.819534
 C        -0.863815        -1.362064         0.217974
 C        -0.059537        -0.060523        -0.076124
 O         1.111942        -0.124862        -0.392527
 C        -0.774532         1.290047         0.055517
 C        -1.993171         1.342477        -0.933223
 H        -4.372699         0.817584        -0.960043
 H        -2.596200        -1.532850        -2.966546
 H        -0.912651        -0.797604        -2.692601
 H        -2.861191        -2.042176        -0.641612
 H        -1.299276        -1.295267         1.266848
 H        -0.240547        -2.241769        -0.073751
 H        -1.156140         1.239117         1.153529
 H         0.132254         1.978093        -0.022868
 H        -2.889260         1.943867        -0.625432
 H        -1.611826         1.747816        -1.934844
