19
Iteration:  2991charge 0 multiplicity 1
 O        -3.978006         0.238745        -1.634646
 C        -2.623980         0.050516        -1.305962
 C        -1.985889        -0.979526        -2.355126
 C        -2.158573        -1.279687        -0.898223
 C        -0.851545        -1.352531        -0.085127
 C        -0.030353        -0.073959        -0.133341
 O         1.242332         0.059454        -0.036490
 C        -0.665302         1.207724        -0.089445
 C        -1.961593         1.338635        -0.955732
 H        -4.343653         0.657145        -0.885285
 H        -2.727747        -1.409823        -3.005481
 H        -1.039057        -0.842567        -2.857924
 H        -2.958207        -1.983484        -0.579940
 H        -1.111337        -1.425106         1.036376
 H        -0.212647        -2.269376        -0.186988
 H        -0.960305         1.292688         1.050620
 H         0.143734         1.835908        -0.366333
 H        -2.671181         1.980436        -0.448942
 H        -1.582473         1.738479        -1.956957
