19
Iteration:  3176
 O        -4.021173         0.238757        -1.762887
 C        -2.604572         0.100707        -1.383821
 C        -1.764287        -0.882232        -2.289986
 C        -2.052955        -1.299212        -0.750077
 C        -0.828970        -1.344466         0.195581
 C        -0.015187        -0.059044        -0.075736
 O         1.138035        -0.186688        -0.408002
 C        -0.809643         1.238503         0.023367
 C        -2.019363         1.425081        -0.965288
 H        -4.441971         0.492077        -0.859368
 H        -2.332887        -1.384009        -3.049143
 H        -0.702965        -0.634434        -2.428992
 H        -2.889485        -2.039073        -0.502000
 H        -1.035274        -1.525143         1.231677
 H        -0.030859        -2.035100        -0.064472
 H        -1.049757         1.384253         1.037411
 H        -0.150976         1.996335        -0.298634
 H        -2.848975         2.025825        -0.403537
 H        -1.810794         2.005009        -1.806567
