19
Iteration:  1095charge 0 multiplicity 1
 O        -3.893860         0.286010        -1.200763
 C        -2.544419         0.099804        -1.554823
 C        -2.346713        -1.040274        -2.396882
 C        -2.109735        -1.225253        -0.987202
 C        -0.775154        -1.337256        -0.313413
 C         0.051981        -0.019741        -0.022044
 O         1.180353         0.037000         0.416628
 C        -0.886492         1.157084        -0.137944
 C        -1.666266         1.288954        -1.445201
 H        -3.829259         0.594393        -0.293508
 H        -3.151800        -1.563899        -2.895541
 H        -1.520770        -1.024417        -3.110705
 H        -2.974682        -1.724279        -0.493853
 H        -1.052071        -1.773331         0.685409
 H         0.028217        -1.995691        -0.822683
 H        -1.552855         0.844870         0.721652
 H        -0.534015         2.219654         0.084122
 H        -2.234955         2.245980        -1.508704
 H        -0.997783         1.212465        -2.318902
