19
Iteration:  1410charge 0 multiplicity 1
 O        -3.995509         0.208434        -1.680807
 C        -2.598166         0.080945        -1.360341
 C        -1.794884        -0.787835        -2.263058
 C        -2.060122        -1.237196        -0.843323
 C        -0.965608        -1.416787         0.175064
 C        -0.026880        -0.054974        -0.129141
 O         1.184505        -0.233400        -0.261119
 C        -0.765480         1.268709        -0.064426
 C        -1.981951         1.410969        -1.017346
 H        -4.556509         0.349527        -0.984266
 H        -2.263019        -1.336518        -3.067998
 H        -0.727371        -0.505905        -2.499400
 H        -2.885485        -1.898535        -0.684951
 H        -1.293502        -1.431677         1.256458
 H        -0.141819        -2.121591         0.068600
 H        -1.092594         1.552721         0.939177
 H         0.028674         2.037725        -0.293066
 H        -2.714916         2.018949        -0.474043
 H        -1.623292         1.836988        -1.980782
