19
Iteration:  2012charge 0 multiplicity 1
 O        -3.867384         0.287204        -1.167559
 C        -2.535748         0.058422        -1.555552
 C        -2.114888        -1.119675        -2.447751
 C        -2.043605        -1.170241        -0.931153
 C        -0.823117        -1.313397        -0.045584
 C        -0.099712        -0.044377         0.004771
 O         1.098236        -0.002321        -0.063721
 C        -0.984244         1.256741         0.099528
 C        -1.614064         1.282412        -1.348487
 H        -4.326538         0.617237        -1.955116
 H        -2.987478        -1.700404        -2.860578
 H        -1.311870        -0.968083        -3.148159
 H        -2.787911        -1.949867        -0.727496
 H        -1.218625        -1.563436         0.928564
 H        -0.174207        -2.077475        -0.493415
 H        -1.805472         1.120225         0.880008
 H        -0.342902         2.100759         0.487006
 H        -2.165990         2.286294        -1.524132
 H        -0.547639         1.459114        -1.987945
