19
Iteration:  3292
 O        -4.029604         0.284837        -1.605906
 C        -2.608104         0.013057        -1.419570
 C        -1.979165        -1.014701        -2.331732
 C        -2.087763        -1.299899        -0.817735
 C        -0.825566        -1.263573        -0.037506
 C         0.011096        -0.040469        -0.100007
 O         1.191639         0.013569        -0.199221
 C        -0.798970         1.192479         0.048182
 C        -1.833438         1.315547        -1.031109
 H        -4.471246         0.739108        -0.814434
 H        -2.816136        -1.369135        -2.963460
 H        -0.901937        -0.932951        -2.624808
 H        -2.780266        -2.087290        -0.552791
 H        -1.176729        -1.378257         1.045252
 H        -0.114178        -2.090559        -0.252263
 H        -1.486341         0.929804         0.942213
 H        -0.284170         2.128863         0.346900
 H        -2.393483         2.142668        -0.809052
 H        -1.265551         1.592810        -1.982067
