19
Iteration:  2236charge 0 multiplicity 1
 O        -4.038123         0.376626        -1.493639
 C        -2.615456         0.042340        -1.402034
 C        -2.017989        -0.995884        -2.360746
 C        -2.122109        -1.291124        -0.795575
 C        -0.798843        -1.404506        -0.000650
 C         0.019283        -0.078152        -0.065393
 O         1.262492         0.054161        -0.075126
 C        -0.855852         1.172825         0.002953
 C        -1.838761         1.357966        -1.200530
 H        -4.375646         0.210080        -2.336953
 H        -2.677656        -1.536823        -2.960510
 H        -0.925588        -0.896135        -2.625974
 H        -2.793486        -2.020719        -0.341519
 H        -1.154797        -1.480553         1.030763
 H        -0.180358        -2.241112        -0.351260
 H        -1.407823         1.244127         0.873791
 H        -0.102030         1.948204        -0.083554
 H        -2.562356         2.021167        -0.932653
 H        -1.214981         1.504896        -2.109659
