19
Iteration:  4026charge 0 multiplicity 1
 O        -3.910262         0.303013        -1.028105
 C        -2.588341         0.057499        -1.434305
 C        -2.517026        -1.137705        -2.375627
 C        -1.994796        -1.285934        -0.981452
 C        -0.464776        -1.221843        -0.758331
 C        -0.070575        -0.026763        -0.009064
 O         0.991329         0.074177         0.681374
 C        -0.901855         1.231623        -0.182650
 C        -1.588354         1.255854        -1.547904
 H        -3.870112         0.547005        -0.149556
 H        -3.289424        -1.715236        -3.001142
 H        -1.662271        -1.321314        -2.950731
 H        -2.683713        -1.774961        -0.306319
 H        -0.218517        -2.122072        -0.076404
 H         0.199556        -1.273362        -1.628783
 H        -1.639268         1.217787         0.649260
 H        -0.216774         2.004118         0.047292
 H        -2.092241         2.218850        -1.891829
 H        -0.886620         0.997702        -2.441922
