19
Iteration:  2070
 O        -4.028407         0.294309        -1.390510
 C        -2.648274         0.035599        -1.476734
 C        -2.111008        -1.087156        -2.304262
 C        -2.109283        -1.271482        -0.914684
 C        -0.744877        -1.242096        -0.169206
 C         0.022696        -0.010889        -0.078484
 O         1.197972        -0.077221         0.121945
 C        -0.827626         1.253892        -0.042750
 C        -1.773102         1.304018        -1.218684
 H        -4.082465         0.973389        -2.180696
 H        -2.865703        -1.617487        -2.891412
 H        -1.093416        -0.963295        -2.722217
 H        -2.820588        -1.909250        -0.381042
 H        -0.894589        -1.601572         0.877811
 H         0.036169        -1.903659        -0.587980
 H        -1.357048         1.142648         1.016696
 H        -0.136473         2.092659        -0.024671
 H        -2.441369         2.082931        -0.895620
 H        -1.325159         1.722811        -2.251745
