19
Iteration:    39
 O        -3.982762         0.195203        -1.440861
 C        -2.638471        -0.009768        -1.443995
 C        -2.023275        -1.021205        -2.383340
 C        -2.065530        -1.252844        -0.958271
 C        -1.010127        -1.193910         0.100224
 C         0.031256         0.045249         0.024866
 O         1.201739        -0.157071        -0.074845
 C        -0.661236         1.329410        -0.085847
 C        -1.784743         1.350205        -1.229209
 H        -4.440622        -0.314589        -0.631780
 H        -2.690803        -1.782092        -2.937939
 H        -1.234040        -0.600614        -3.081510
 H        -2.814246        -2.077061        -0.849833
 H        -1.577134        -1.147054         1.054245
 H        -0.366344        -2.108149         0.053086
 H        -1.218376         1.505632         0.863935
 H         0.076252         2.182216        -0.086987
 H        -2.508630         2.208745        -0.980318
 H        -1.459909         1.832016        -2.252364
