19
Iteration:  3679
 O        -3.846762         0.276064        -0.894784
 C        -2.604812         0.074987        -1.474862
 C        -2.574736        -1.162795        -2.527090
 C        -2.007565        -1.215536        -1.034448
 C        -0.484111        -1.201686        -0.741177
 C        -0.057317         0.004505         0.039895
 O         0.874228         0.061816         0.831525
 C        -0.782699         1.307522        -0.343404
 C        -1.555963         1.126325        -1.528665
 H        -3.740796         0.193942         0.021956
 H        -3.564855        -1.691965        -2.668030
 H        -1.885140        -1.060039        -3.300759
 H        -2.619028        -1.892171        -0.396723
 H         0.019002        -2.161574        -0.345433
 H        -0.019250        -1.023379        -1.702221
 H        -1.338186         1.193515         0.593836
 H        -0.147135         2.232041        -0.229924
 H        -2.065460         2.081611        -1.996707
 H        -0.845038         0.808510        -2.407677
