19
Iteration:  2083charge 0 multiplicity 1
 O        -4.024587         0.250893        -1.414834
 C        -2.573098         0.092285        -1.540783
 C        -2.134282        -1.108635        -2.368236
 C        -2.126521        -1.215740        -0.788703
 C        -0.753937        -1.343662        -0.176829
 C         0.059336        -0.013749         0.022923
 O         1.270292        -0.094817         0.141833
 C        -0.769658         1.265541        -0.093018
 C        -1.898590         1.401778        -1.208691
 H        -4.483522         0.689135        -2.080316
 H        -2.888351        -1.675017        -3.039300
 H        -1.215973        -1.063011        -2.900681
 H        -2.965546        -1.828521        -0.395491
 H        -0.823188        -1.811230         0.845728
 H        -0.164955        -2.010192        -0.837613
 H        -1.406311         1.370435         0.888746
 H        -0.123056         2.146075        -0.076879
 H        -2.660015         2.121592        -0.928685
 H        -1.395444         1.905234        -2.059262
