19
Iteration:  2698
 O        -4.000574         0.241735        -1.285705
 C        -2.615027         0.061372        -1.357698
 C        -2.210655        -0.940599        -2.495490
 C        -2.055909        -1.251054        -0.998494
 C        -0.750119        -1.344040        -0.239064
 C        -0.024374        -0.031252         0.062930
 O         1.217914        -0.011394         0.281452
 C        -0.792329         1.266824        -0.134327
 C        -1.711715         1.333250        -1.365630
 H        -4.398032        -0.466280        -0.877333
 H        -3.073524        -1.727067        -2.795946
 H        -1.518219        -0.821651        -3.289075
 H        -2.869181        -1.824758        -0.512847
 H        -1.040004        -1.666166         0.764078
 H        -0.201559        -2.184709        -0.700282
 H        -1.347641         1.502071         0.831202
 H        -0.052413         2.039826        -0.232580
 H        -2.344549         2.161615        -1.311789
 H        -1.267391         1.453980        -2.263306
