19
Iteration:  4646
 O        -4.118843         0.178180        -1.218664
 C        -2.704214         0.017607        -1.351985
 C        -2.235136        -0.706715        -2.584686
 C        -2.001234        -1.266439        -1.093563
 C        -0.575323        -1.400946        -0.383293
 C         0.059400        -0.054468        -0.049187
 O         1.041325        -0.010335         0.799164
 C        -0.441138         1.164372        -0.737822
 C        -2.006940         1.297960        -0.992006
 H        -4.237470         0.109607        -0.198598
 H        -2.884759        -1.226062        -3.201833
 H        -1.388434        -0.307889        -3.089840
 H        -2.710944        -2.049856        -0.787491
 H        -0.555388        -2.079817         0.396536
 H         0.070134        -1.879010        -1.057666
 H        -0.198704         2.228776        -0.319179
 H         0.159182         1.252196        -1.691390
 H        -2.437096         1.712148        -0.073032
 H        -2.293700         2.212738        -1.725920
