19
Iteration:   481
 O        -4.008803         0.243660        -1.357640
 C        -2.522874         0.090535        -1.607957
 C        -2.367070        -1.192859        -2.334168
 C        -2.110254        -1.163932        -0.854501
 C        -0.710868        -1.307389        -0.303878
 C         0.111437         0.023867        -0.083350
 O         1.251746        -0.067971         0.341421
 C        -0.870386         1.213317        -0.054040
 C        -1.733683         1.400672        -1.330858
 H        -4.336424         1.111569        -1.305970
 H        -3.385949        -1.530199        -2.707793
 H        -1.607275        -1.558983        -2.986042
 H        -2.800813        -1.497032        -0.138355
 H        -0.637835        -1.679760         0.763200
 H        -0.026371        -2.041987        -0.733880
 H        -1.427357         0.840471         0.815874
 H        -0.293327         2.110006         0.142015
 H        -2.363894         2.328246        -1.279552
 H        -1.120473         1.612997        -2.279133
