19
Iteration:  1516charge 0 multiplicity 1
 O        -4.014230         0.287389        -1.641591
 C        -2.633169         0.114685        -1.365132
 C        -1.917631        -0.885632        -2.295719
 C        -2.088200        -1.297345        -0.821094
 C        -0.878337        -1.320978        -0.041295
 C        -0.030223        -0.145298        -0.146953
 O         1.207525        -0.091713         0.006943
 C        -0.751305         1.181172        -0.185100
 C        -1.918200         1.373401        -1.023140
 H        -4.465610         0.387458        -0.797442
 H        -2.478427        -1.426232        -3.030875
 H        -0.812777        -0.630749        -2.512648
 H        -2.768427        -2.111467        -0.614800
 H        -0.898606        -1.445675         1.064176
 H        -0.184503        -2.166735        -0.285886
 H        -0.936210         1.367681         0.978167
 H        -0.050813         1.944592        -0.510977
 H        -2.705452         1.935481        -0.526997
 H        -1.751547         2.050468        -1.881677
