19
Iteration:   111charge 0 multiplicity 1
 O        -3.933071         0.124049        -1.677617
 C        -2.627332         0.043450        -1.428396
 C        -2.179163        -1.038510        -2.277776
 C        -2.198517        -1.219733        -0.790976
 C        -0.815295        -1.252938        -0.029364
 C         0.041409        -0.038555        -0.055007
 O         1.260577        -0.152216        -0.033016
 C        -0.671512         1.391296        -0.074385
 C        -1.913739         1.385396        -1.097423
 H        -4.444366         0.466022        -0.803239
 H        -2.819913        -1.719404        -2.821204
 H        -1.181074        -0.917261        -2.759818
 H        -3.023457        -1.867017        -0.407006
 H        -0.989512        -1.205318         1.066416
 H        -0.184910        -2.132946        -0.281046
 H        -0.793747         1.801577         0.933681
 H         0.119703         2.018281        -0.455936
 H        -2.605939         2.150064        -0.931180
 H        -1.506872         1.880151        -1.944281
