19
Iteration:  2165
 O        -4.055989         0.132955        -1.277812
 C        -2.567910         0.072751        -1.452815
 C        -2.047365        -0.934348        -2.538455
 C        -2.053851        -1.221845        -0.979461
 C        -0.839279        -1.285091         0.064079
 C        -0.019115        -0.068027        -0.018201
 O         1.156135        -0.062949         0.135787
 C        -0.680161         1.228973        -0.186326
 C        -1.852750         1.352894        -1.287436
 H        -4.416360         1.000342        -1.537884
 H        -2.718590        -1.589495        -3.056383
 H        -1.031525        -0.659667        -2.896014
 H        -2.781941        -1.987024        -0.691429
 H        -1.247296        -1.279687         1.087434
 H        -0.251763        -2.198991        -0.103665
 H        -1.156392         1.509000         0.734717
 H         0.189999         1.870605        -0.415658
 H        -2.623301         2.010063        -0.718888
 H        -1.403076         1.731365        -2.142250
