19
Iteration:  3073charge 0 multiplicity 1
 O        -4.043126         0.157589        -1.584272
 C        -2.588297        -0.013741        -1.349497
 C        -1.872427        -0.837634        -2.323617
 C        -2.057458        -1.281121        -0.915929
 C        -1.004780        -1.299753         0.076372
 C        -0.029828        -0.109784        -0.101266
 O         1.229274        -0.122975        -0.170388
 C        -0.702962         1.329574        -0.138668
 C        -1.917111         1.450680        -0.972717
 H        -4.551976        -0.211017        -0.913012
 H        -2.396954        -1.312053        -3.071832
 H        -0.744452        -0.556101        -2.519462
 H        -2.794526        -1.985527        -0.673404
 H        -1.328708        -1.351446         1.115147
 H        -0.368294        -2.136317        -0.170450
 H        -0.948112         1.496541         0.913568
 H         0.199587         1.996318        -0.270159
 H        -2.770511         1.935236        -0.459165
 H        -1.761703         1.985497        -1.989705
