19
Iteration:  4329
 O        -3.866221         0.160991        -1.748309
 C        -2.556354         0.086518        -1.407509
 C        -1.892628        -0.946556        -2.321437
 C        -2.130809        -1.255395        -0.755994
 C        -0.825449        -1.325869         0.148369
 C        -0.052237        -0.012174        -0.060262
 O         1.061711        -0.043674        -0.549292
 C        -0.832172         1.239360         0.141291
 C        -1.894126         1.339594        -0.820243
 H        -4.318055         0.244134        -0.952502
 H        -2.500826        -1.453750        -3.038213
 H        -0.908210        -0.790592        -2.681942
 H        -2.988712        -1.928923        -0.631954
 H        -1.120267        -1.336661         1.184943
 H        -0.115984        -2.168695        -0.178208
 H        -1.229903         1.161618         1.145702
 H        -0.176861         2.107344         0.192038
 H        -2.708238         2.141833        -0.590103
 H        -1.416833         1.915517        -1.609857
