19
Iteration:  2551
 O        -3.918795         0.239938        -1.264584
 C        -2.606002         0.038666        -1.533078
 C        -2.276438        -1.084512        -2.498310
 C        -2.060893        -1.236815        -0.964943
 C        -0.774570        -1.474433        -0.085916
 C        -0.007923        -0.014797         0.026246
 O         1.173960         0.094027         0.116922
 C        -0.862071         1.286204         0.016506
 C        -1.640912         1.302451        -1.296076
 H        -4.264992         1.217768        -1.411565
 H        -3.153295        -1.532384        -3.058179
 H        -1.355194        -1.206986        -3.145568
 H        -2.927750        -1.872547        -0.611774
 H        -1.062223        -1.722441         0.949748
 H        -0.008567        -2.042197        -0.615583
 H        -1.544170         1.460220         0.841922
 H        -0.230047         2.234136         0.095594
 H        -2.409560         2.153080        -1.284845
 H        -0.938712         1.442888        -2.161551
