19
Iteration:  4218charge 0 multiplicity 1
 O        -3.955480         0.161559        -1.443519
 C        -2.593218         0.068168        -1.326454
 C        -2.045081        -0.961195        -2.345957
 C        -2.090800        -1.272369        -0.921413
 C        -0.835857        -1.325147        -0.173746
 C        -0.053506         0.031167        -0.036498
 O         1.251245        -0.070809        -0.082547
 C        -0.885684         1.275775         0.016004
 C        -1.830799         1.400961        -1.205075
 H        -4.410479         0.100482        -0.512920
 H        -2.700007        -1.610142        -2.982211
 H        -1.020156        -0.894798        -2.680142
 H        -2.809241        -1.975679        -0.521618
 H        -0.987071        -1.755345         0.797628
 H         0.026263        -1.970988        -0.496710
 H        -1.466553         1.258235         0.924101
 H        -0.156818         2.157788         0.085113
 H        -2.559206         2.244461        -0.990145
 H        -1.190971         1.664637        -2.098792
