19
Iteration:   125
 O        -4.025564         0.218709        -1.718691
 C        -2.590030         0.027871        -1.396151
 C        -2.158340        -1.166250        -2.323747
 C        -2.117852        -1.233195        -0.771258
 C        -0.862214        -1.185932        -0.048507
 C         0.096808         0.028442        -0.052375
 O         1.332687        -0.181386        -0.031162
 C        -0.688519         1.395564        -0.064755
 C        -1.910008         1.353438        -1.055601
 H        -4.391529         0.831733        -1.140433
 H        -3.178849        -1.574413        -2.723248
 H        -1.214780        -1.229773        -2.928649
 H        -2.837128        -1.937366        -0.288002
 H        -1.182857        -1.320588         0.979179
 H        -0.295054        -2.143825        -0.206917
 H        -1.173201         1.529767         0.894817
 H        -0.031932         2.240440        -0.332196
 H        -2.673407         1.812139        -0.460776
 H        -1.724487         1.827887        -2.062595
