19
Iteration:  1760charge 0 multiplicity 1
 O        -3.977887         0.304089        -1.350669
 C        -2.630963         0.054665        -1.489817
 C        -2.203317        -1.051922        -2.446382
 C        -2.078421        -1.209087        -0.892215
 C        -0.762771        -1.308177        -0.122637
 C         0.069720        -0.045166         0.087007
 O         1.259961        -0.005148         0.070136
 C        -0.947386         1.217280        -0.001895
 C        -1.716697         1.269866        -1.253011
 H        -4.228142         0.795765        -2.067288
 H        -3.088358        -1.445076        -3.008375
 H        -1.329472        -1.161260        -3.136643
 H        -2.840517        -1.789963        -0.356883
 H        -0.939435        -1.688700         0.923011
 H        -0.122883        -2.115494        -0.544434
 H        -1.594929         1.171432         0.829205
 H        -0.266407         2.107331         0.003050
 H        -2.339067         2.126284        -1.375238
 H        -1.083555         1.368119        -2.140352
