19
Iteration:  1633charge 0 multiplicity 1
 O        -4.001714         0.320739        -1.485307
 C        -2.571660         0.075621        -1.510516
 C        -2.024017        -1.027576        -2.370101
 C        -2.088928        -1.298724        -0.909665
 C        -0.871725        -1.294396        -0.065919
 C        -0.029425        -0.017113        -0.017554
 O         1.228281        -0.108717        -0.097451
 C        -0.803048         1.273375         0.102157
 C        -1.789585         1.357102        -1.132473
 H        -4.478145        -0.399096        -1.027754
 H        -2.829257        -1.440143        -2.880007
 H        -0.948257        -0.879448        -2.751302
 H        -2.981082        -1.894026        -0.675443
 H        -1.217851        -1.540318         0.986375
 H        -0.106019        -2.067871        -0.307516
 H        -1.531923         1.272285         0.994021
 H        -0.194816         2.238612         0.105163
 H        -2.614275         2.166639        -1.085597
 H        -1.139754         1.613350        -1.995110
