19
Iteration:    11
 O        -4.007569         0.199062        -1.571498
 C        -2.539660         0.047650        -1.421938
 C        -2.059797        -1.008698        -2.401053
 C        -2.164351        -1.260699        -0.842398
 C        -0.800912        -1.295102         0.077684
 C        -0.049640         0.026032        -0.042543
 O         1.181964        -0.075885        -0.116588
 C        -0.764816         1.332010        -0.013440
 C        -1.763698         1.295110        -1.191919
 H        -4.351325         0.203531        -0.561499
 H        -2.970982        -1.323438        -2.845027
 H        -1.124989        -1.255881        -2.828139
 H        -3.065305        -1.774585        -0.593004
 H        -1.230926        -1.177991         1.107228
 H        -0.189028        -2.174129         0.116617
 H        -1.239348         1.492936         0.979570
 H         0.085343         2.007085        -0.168378
 H        -2.409718         2.159718        -0.965155
 H        -1.140158         1.512565        -2.023270
