19
Iteration:   691charge 0 multiplicity 1
 O        -3.801937         0.300055        -0.970418
 C        -2.612463         0.078128        -1.441354
 C        -2.513752        -1.120976        -2.395050
 C        -1.989883        -1.190911        -0.894962
 C        -0.432731        -1.366701        -0.749182
 C         0.017587        -0.030096        -0.086445
 O         0.679462        -0.029230         0.910630
 C        -0.696007         1.307049        -0.452109
 C        -1.661899         1.298088        -1.632050
 H        -3.938562         0.513119         0.034604
 H        -3.400269        -1.675132        -2.724523
 H        -1.794770        -1.160998        -3.164263
 H        -2.585541        -1.729143        -0.095003
 H        -0.058226        -2.275199        -0.225315
 H         0.067589        -1.442262        -1.739278
 H        -1.132374         1.436120         0.519420
 H         0.178614         1.981399        -0.479357
 H        -2.253847         2.300790        -1.553578
 H        -1.030138         1.304536        -2.566146
