19
Iteration:  4640charge 0 multiplicity 1
 O        -4.120702         0.157154        -1.220116
 C        -2.692666         0.085918        -1.287434
 C        -2.178501        -0.683621        -2.548627
 C        -1.999520        -1.253711        -1.086769
 C        -0.605672        -1.369959        -0.398867
 C         0.078040        -0.077782        -0.024722
 O         1.027607        -0.010157         0.743957
 C        -0.501905         1.123483        -0.739218
 C        -1.990312         1.318299        -1.039423
 H        -4.418086        -0.134079        -0.389712
 H        -2.904398        -1.418478        -3.170653
 H        -1.227725        -0.303883        -2.989602
 H        -2.793993        -1.991296        -0.888254
 H        -0.574796        -2.025227         0.580491
 H         0.149108        -1.781921        -1.205989
 H        -0.333152         2.018458        -0.242396
 H         0.143376         1.135775        -1.619906
 H        -2.245833         1.672978        -0.003772
 H        -2.191851         2.044013        -1.723376
