19
Iteration:  2578
 O        -3.910782         0.411383        -1.232903
 C        -2.610056        -0.002680        -1.438272
 C        -2.160110        -1.130954        -2.352385
 C        -2.095328        -1.276937        -0.901482
 C        -0.703259        -1.332023        -0.304318
 C        -0.062027         0.017666         0.001504
 O         1.166549         0.033133         0.101635
 C        -0.967935         1.192036         0.039673
 C        -1.661874         1.233604        -1.359513
 H        -4.291542         0.921861        -2.061312
 H        -2.793923        -1.546135        -3.131003
 H        -1.234948        -0.868146        -2.884342
 H        -2.828490        -1.891228        -0.399247
 H        -0.885538        -1.496460         0.773742
 H         0.089790        -1.968291        -0.727571
 H        -1.891872         0.980140         0.681195
 H        -0.546244         2.115130         0.423147
 H        -2.211895         2.146449        -1.410635
 H        -0.930717         1.366294        -2.173585
