19
Iteration:  2958charge 0 multiplicity 1
 O        -4.049704         0.163065        -1.621690
 C        -2.631050         0.127059        -1.384266
 C        -1.991307        -0.975343        -2.337987
 C        -2.130433        -1.184461        -0.835240
 C        -0.711041        -1.259732        -0.116868
 C         0.049661        -0.061220        -0.031904
 O         1.248723        -0.188899        -0.079016
 C        -0.750872         1.244224         0.027277
 C        -1.987692         1.415243        -1.114611
 H        -4.529213         0.162978        -0.778706
 H        -2.605946        -1.503434        -2.935943
 H        -0.973662        -0.773665        -2.775169
 H        -2.951265        -1.751435        -0.399703
 H        -1.003737        -1.420417         0.973044
 H        -0.020051        -2.072007        -0.439158
 H        -1.356259         1.224830         1.036456
 H        -0.054898         2.058590         0.111691
 H        -2.724570         2.137703        -0.777632
 H        -1.690194         1.952590        -2.096179
