19
Iteration:  1545
 O        -4.020691         0.163363        -1.626686
 C        -2.619074         0.094141        -1.416201
 C        -2.073592        -0.904346        -2.441443
 C        -2.114586        -1.303229        -0.876119
 C        -0.939925        -1.332878         0.007467
 C         0.091122        -0.092088        -0.013554
 O         1.301666        -0.164528        -0.010095
 C        -0.683931         1.391270        -0.039421
 C        -1.917790         1.399226        -1.039009
 H        -4.389332         0.643445        -0.967074
 H        -2.740101        -1.489986        -3.079618
 H        -1.138117        -0.813282        -2.958695
 H        -2.883462        -2.088441        -0.713618
 H        -1.087825        -1.446649         1.121412
 H        -0.192545        -2.066260        -0.316828
 H        -1.070946         1.506569         0.942313
 H         0.040334         2.104432        -0.459652
 H        -2.805841         1.873741        -0.470695
 H        -1.691191         2.040176        -1.899460
