19
Iteration:  1364
 O        -3.947537         0.194498        -1.810154
 C        -2.556859         0.067802        -1.442374
 C        -1.879088        -0.954944        -2.231913
 C        -2.245755        -1.241647        -0.846610
 C        -0.927858        -1.212261         0.146716
 C         0.022255        -0.052644        -0.090277
 O         1.228725        -0.178642        -0.366530
 C        -0.680635         1.279983         0.094284
 C        -2.007390         1.382342        -0.907222
 H        -4.356864         0.378038        -1.044584
 H        -2.592586        -1.257772        -3.081390
 H        -0.841953        -0.904615        -2.463544
 H        -3.017589        -1.991969        -0.509494
 H        -1.199357        -1.241958         1.208600
 H        -0.480598        -2.230823         0.076495
 H        -0.955398         1.134588         1.138810
 H         0.056914         2.085530         0.230448
 H        -2.792241         1.922218        -0.447080
 H        -1.573569         1.903274        -1.785323
