19
Iteration:   326
 O        -4.023934         0.368396        -1.692548
 C        -2.616377         0.009389        -1.400566
 C        -2.053646        -1.153135        -2.236546
 C        -2.157759        -1.268917        -0.781272
 C        -0.813028        -1.302663         0.069491
 C         0.047832        -0.019896        -0.034741
 O         1.259376        -0.028269        -0.192609
 C        -0.783895         1.256049        -0.020787
 C        -1.825319         1.304696        -1.121641
 H        -4.069357         1.200499        -1.385667
 H        -3.020684        -1.572679        -2.623051
 H        -1.089163        -1.115234        -2.740789
 H        -2.803481        -2.135308        -0.437205
 H        -1.151946        -1.434741         1.135720
 H        -0.150071        -2.092020        -0.288654
 H        -1.306619         1.217788         0.969174
 H        -0.285712         2.215050        -0.022067
 H        -2.555267         2.023223        -0.758458
 H        -1.466316         1.622794        -2.190440
