19
Iteration:  3583
 O        -3.990094         0.249729        -1.155575
 C        -2.621654         0.027808        -1.489666
 C        -2.467986        -1.135131        -2.470079
 C        -2.002570        -1.246638        -0.991262
 C        -0.546204        -1.175602        -0.540126
 C        -0.008583         0.010550         0.103462
 O         1.110183        -0.002756         0.544945
 C        -0.826830         1.240215        -0.166692
 C        -1.638015         1.235523        -1.472024
 H        -4.038803         0.454320        -0.179741
 H        -3.490595        -1.574094        -2.649827
 H        -1.715337        -0.965920        -3.211033
 H        -2.721418        -1.949965        -0.512884
 H        -0.487957        -1.917090         0.306576
 H         0.250740        -1.429184        -1.290731
 H        -1.559637         1.495619         0.648044
 H        -0.117151         2.149662        -0.210097
 H        -2.298511         2.195889        -1.346731
 H        -0.965517         1.385377        -2.248054
