19
Iteration:  1483charge 0 multiplicity 1
 O        -4.072213         0.148651        -1.694676
 C        -2.613467         0.109925        -1.373204
 C        -1.950981        -0.854004        -2.299798
 C        -2.158880        -1.251953        -0.902832
 C        -0.851719        -1.277188         0.026179
 C         0.059417        -0.119165        -0.000717
 O         1.295286        -0.223372        -0.079494
 C        -0.748389         1.273074        -0.137622
 C        -1.939587         1.447874        -1.025233
 H        -4.558199         0.142368        -0.885223
 H        -2.521008        -1.144836        -3.173437
 H        -0.841272        -0.664627        -2.402844
 H        -2.893484        -1.900558        -0.434310
 H        -1.178655        -1.374494         1.078206
 H        -0.283158        -2.200240        -0.223790
 H        -0.906983         1.511680         0.950027
 H        -0.161377         2.156642        -0.372585
 H        -2.681688         2.008957        -0.461478
 H        -1.659601         1.985251        -1.947478
