19
Iteration:  4709
 O        -4.029217         0.084926        -1.007999
 C        -2.664746         0.094916        -1.293779
 C        -2.104584        -0.722573        -2.507095
 C        -1.996649        -1.293582        -1.132355
 C        -0.599070        -1.449441        -0.591864
 C         0.043450        -0.051889        -0.121318
 O         0.718832         0.068675         0.882580
 C        -0.391484         1.157577        -0.984812
 C        -1.923393         1.361921        -0.819344
 H        -4.465768         0.690363        -1.695324
 H        -2.802167        -1.157350        -3.089959
 H        -1.148041        -0.453822        -2.964939
 H        -2.708448        -2.033734        -0.828040
 H        -0.668695        -2.166990         0.292457
 H        -0.061490        -1.877575        -1.494686
 H         0.185980         1.997547        -0.478242
 H        -0.025670         0.948531        -2.001707
 H        -2.150627         1.443592         0.258588
 H        -2.130676         2.265500        -1.339988
