19
Iteration:  4475charge 0 multiplicity 1
 O        -4.101258         0.162574        -1.595853
 C        -2.676767         0.093764        -1.349330
 C        -1.923043        -0.808661        -2.371347
 C        -2.003681        -1.324947        -0.974727
 C        -0.839035        -1.320108        -0.013439
 C         0.029250        -0.077578        -0.104791
 O         1.253922        -0.126571         0.033650
 C        -0.633591         1.281575        -0.333025
 C        -2.068309         1.360719        -0.821854
 H        -4.535356         0.252431        -0.695523
 H        -2.622653        -1.249383        -3.028852
 H        -0.898378        -0.417663        -2.730245
 H        -2.652452        -2.149328        -0.669139
 H        -1.268182        -1.357641         1.007746
 H        -0.098648        -2.142276        -0.136915
 H        -0.565601         1.862936         0.551259
 H         0.018970         1.796605        -1.065593
 H        -2.784072         1.508323         0.081163
 H        -2.215180         2.133749        -1.509433
