19
Iteration:  4008charge 0 multiplicity 1
 O        -3.892976         0.313902        -0.998853
 C        -2.586457        -0.004830        -1.522759
 C        -2.519723        -1.156485        -2.408807
 C        -1.897035        -1.242448        -0.998771
 C        -0.489235        -1.330239        -0.723364
 C        -0.000837         0.060314        -0.025402
 O         0.953217         0.011177         0.776370
 C        -0.854388         1.287239        -0.223017
 C        -1.670932         1.239763        -1.544906
 H        -3.871823         0.811259        -0.235489
 H        -3.554001        -1.541778        -2.482363
 H        -2.054489        -1.056781        -3.465702
 H        -2.546159        -1.914608        -0.389013
 H        -0.137650        -2.030257        -0.003942
 H         0.087321        -1.315872        -1.697428
 H        -1.526361         1.319160         0.649900
 H        -0.319062         2.251712        -0.210674
 H        -2.338431         2.026435        -1.535681
 H        -1.044550         1.287792        -2.472907
