19
Iteration:  4581
 O        -4.089337         0.208586        -1.331009
 C        -2.650340         0.026859        -1.392976
 C        -2.057208        -0.759202        -2.516143
 C        -2.033728        -1.254690        -1.084605
 C        -0.798460        -1.285573        -0.196742
 C         0.090918        -0.015167        -0.170157
 O         1.048074        -0.043924         0.537011
 C        -0.453268         1.217255        -0.733630
 C        -2.007708         1.213510        -0.702580
 H        -4.456207        -0.558035        -0.845229
 H        -2.667638        -1.266552        -3.122530
 H        -1.248826        -0.364060        -3.114021
 H        -2.708327        -2.085198        -0.897300
 H        -0.931803        -1.382700         0.844003
 H        -0.111087        -2.121728        -0.430609
 H         0.067632         2.111614        -0.238894
 H        -0.098505         1.191821        -1.751797
 H        -2.415248         1.298827         0.269752
 H        -2.420585         2.107601        -1.232557
