19
Iteration:  3955charge 0 multiplicity 1
 O        -3.926133         0.226800        -0.919106
 C        -2.663634        -0.027343        -1.349705
 C        -2.516185        -1.015585        -2.477745
 C        -1.948378        -1.272165        -0.964234
 C        -0.449979        -1.205525        -0.806372
 C        -0.013879        -0.027336         0.010224
 O         0.771304         0.013948         0.890691
 C        -0.641376         1.309608        -0.441003
 C        -1.633077         1.227712        -1.559254
 H        -4.012649         0.170541        -0.010780
 H        -3.287823        -1.673287        -2.920076
 H        -1.761722        -0.878460        -3.324134
 H        -2.552734        -1.908870        -0.261944
 H         0.073051        -2.002902        -0.352925
 H         0.046595        -0.962285        -1.787882
 H        -1.138131         1.719126         0.473106
 H         0.207669         2.071784        -0.681429
 H        -2.174048         2.146345        -1.962583
 H        -1.103936         0.872483        -2.414252
