19
Iteration:  2270charge 0 multiplicity 1
 O        -3.948092         0.356388        -1.624463
 C        -2.532071         0.028555        -1.432606
 C        -2.053042        -1.100916        -2.293850
 C        -2.144131        -1.190941        -0.703438
 C        -0.805829        -1.269462        -0.106340
 C        -0.026159        -0.030553        -0.072617
 O         1.233205        -0.015444        -0.209127
 C        -0.933617         1.177413         0.179589
 C        -1.793322         1.370539        -1.088295
 H        -4.414826        -0.307409        -2.037478
 H        -2.794538        -1.697080        -2.795650
 H        -1.101104        -1.349187        -2.860625
 H        -2.834059        -1.898136        -0.267988
 H        -0.923647        -1.760712         0.873045
 H        -0.242165        -2.156859        -0.489141
 H        -1.474057         1.085637         1.067474
 H        -0.263044         2.051385         0.320951
 H        -2.420498         2.205169        -1.134052
 H        -1.194577         1.847596        -1.937851
