19
Iteration:  1048
 O        -3.967087         0.429024        -1.232737
 C        -2.616499        -0.010386        -1.420201
 C        -2.389344        -1.033626        -2.460958
 C        -2.079756        -1.327842        -0.946193
 C        -0.631945        -1.331087        -0.460938
 C        -0.047127         0.047800         0.083309
 O         1.150187         0.015980         0.498076
 C        -0.841916         1.296994        -0.112909
 C        -1.580917         1.117788        -1.457567
 H        -4.225755         0.525125        -0.383621
 H        -3.322241        -1.451048        -2.964708
 H        -1.647057        -0.900289        -3.259574
 H        -2.778884        -1.966971        -0.441637
 H        -0.388863        -2.121012         0.300166
 H        -0.009884        -1.472031        -1.376013
 H        -1.656187         1.624681         0.520736
 H        -0.015766         2.005474        -0.026260
 H        -2.202102         1.955305        -1.721996
 H        -0.996068         0.850426        -2.362881
