19
Iteration:  4138
 O        -4.000214         0.198363        -1.242733
 C        -2.630761         0.012195        -1.422184
 C        -2.269312        -1.061344        -2.425505
 C        -1.998495        -1.261735        -1.013939
 C        -0.671544        -1.261343        -0.414644
 C        -0.043040         0.017671        -0.005366
 O         1.198860        -0.042072         0.335579
 C        -0.822231         1.297114        -0.100349
 C        -1.780972         1.314615        -1.292071
 H        -4.242772         0.711971        -0.383771
 H        -3.171658        -1.453869        -2.840396
 H        -1.406989        -0.723821        -3.094296
 H        -2.693817        -1.923511        -0.484695
 H        -0.788186        -1.767632         0.570706
 H         0.143946        -1.845291        -0.821797
 H        -1.334959         1.532671         0.838904
 H        -0.075343         2.054413        -0.198406
 H        -2.351880         2.186749        -1.409529
 H        -1.224104         1.315431        -2.362724
