19
Iteration:  3638
 O        -3.900080         0.445832        -1.086743
 C        -2.623810        -0.017901        -1.451786
 C        -2.486444        -1.124152        -2.377305
 C        -1.893370        -1.249273        -1.033361
 C        -0.425914        -1.309998        -0.621799
 C         0.001040         0.030931        -0.080163
 O         0.940157        -0.020424         0.711038
 C        -0.826999         1.328446        -0.199297
 C        -1.748523         1.146746        -1.513184
 H        -4.140928         0.075109        -0.135386
 H        -3.489111        -1.619808        -2.578090
 H        -1.759297        -1.203010        -3.175706
 H        -2.552373        -1.934671        -0.465611
 H        -0.140027        -2.223212        -0.057734
 H         0.316787        -1.275900        -1.475683
 H        -1.594564         1.316350         0.573024
 H        -0.263027         2.300284        -0.183572
 H        -2.387524         2.132277        -1.594665
 H        -1.148885         1.255181        -2.345009
