19
Iteration:  2293
 O        -3.928030         0.394115        -1.598485
 C        -2.551168         0.102464        -1.488902
 C        -2.055651        -1.135207        -2.260885
 C        -2.173329        -1.250662        -0.822824
 C        -0.794093        -1.335094        -0.004969
 C        -0.043503         0.038734        -0.011216
 O         1.185054        -0.008340        -0.297609
 C        -0.898888         1.210644         0.262617
 C        -1.742236         1.285052        -1.146480
 H        -4.526816        -0.469318        -1.655663
 H        -2.593042        -1.795820        -2.985089
 H        -1.033063        -1.054659        -2.619249
 H        -2.913522        -1.870588        -0.348605
 H        -0.914418        -1.923688         0.930414
 H        -0.003144        -1.961791        -0.477784
 H        -1.630900         1.171179         1.019126
 H        -0.325540         2.153303         0.356150
 H        -2.436475         2.069726        -1.045363
 H        -1.188925         1.809106        -1.978112
