19
Iteration:  3698charge 0 multiplicity 1
 O        -3.868261         0.267625        -0.867812
 C        -2.606733         0.029418        -1.462836
 C        -2.564071        -1.042967        -2.398429
 C        -1.913100        -1.328725        -1.053617
 C        -0.427992        -1.212954        -0.820005
 C        -0.038449         0.062941        -0.004428
 O         0.796775        -0.027287         0.884821
 C        -0.815730         1.338898        -0.276210
 C        -1.568289         1.153756        -1.696152
 H        -3.815734         0.543838         0.062820
 H        -3.530932        -1.578444        -2.583813
 H        -1.908275        -0.921375        -3.225820
 H        -2.390329        -1.983028        -0.308349
 H        -0.132404        -2.033394        -0.142520
 H         0.077152        -1.322963        -1.781862
 H        -1.446069         1.824708         0.527265
 H        -0.070198         2.116471        -0.441615
 H        -2.114219         1.957710        -2.044376
 H        -0.887097         0.826376        -2.552962
