19
Iteration:  4086
 O        -3.991538         0.387170        -1.126916
 C        -2.593438         0.002175        -1.507251
 C        -2.425427        -1.084527        -2.494876
 C        -1.996304        -1.270041        -1.009940
 C        -0.555011        -1.358066        -0.513926
 C         0.022750        -0.009022        -0.028491
 O         1.124991         0.105260         0.529792
 C        -0.901257         1.229087        -0.129016
 C        -1.663205         1.240084        -1.372655
 H        -4.165152         0.190443        -0.167400
 H        -3.352589        -1.632298        -2.455935
 H        -1.688114        -1.128320        -3.369342
 H        -2.734274        -1.953166        -0.536290
 H        -0.330705        -1.911949         0.356545
 H         0.210302        -1.681959        -1.298477
 H        -1.574964         1.174164         0.722066
 H        -0.298280         2.190171         0.016977
 H        -2.392774         2.021647        -1.562712
 H        -1.029165         1.146690        -2.259577
