19
Iteration:   268charge 0 multiplicity 1
 O        -3.997202         0.262390        -1.628963
 C        -2.622699         0.067168        -1.389993
 C        -1.906722        -0.966037        -2.221544
 C        -2.162028        -1.258321        -0.723308
 C        -0.867400        -1.283384         0.078842
 C        -0.059602        -0.027386        -0.044272
 O         1.134982        -0.181087        -0.250807
 C        -0.743107         1.347054        -0.008256
 C        -1.797043         1.328242        -1.201818
 H        -4.498354        -0.232385        -0.890766
 H        -2.306624        -1.557156        -3.001664
 H        -0.903265        -0.575426        -2.524371
 H        -2.919437        -1.978324        -0.511104
 H        -1.041731        -1.486621         1.158254
 H        -0.098257        -2.028023        -0.233278
 H        -1.236669         1.524851         0.919781
 H         0.002878         2.139161        -0.235203
 H        -2.553660         2.107803        -1.066571
 H        -1.312700         1.574172        -2.229272
