19
Iteration:  1539
 O        -4.015272         0.188010        -1.643391
 C        -2.606638         0.062233        -1.395825
 C        -2.047159        -0.903807        -2.424836
 C        -2.170313        -1.305590        -0.916099
 C        -0.865140        -1.360014         0.025998
 C         0.057522        -0.096106        -0.003886
 O         1.302606        -0.145927        -0.012727
 C        -0.661633         1.381273        -0.083417
 C        -1.967889         1.411539        -1.042619
 H        -4.313076         0.720320        -0.768679
 H        -2.782852        -1.445542        -2.997094
 H        -0.977657        -0.721661        -2.793138
 H        -2.975220        -1.966845        -0.649472
 H        -1.133072        -1.555109         1.070058
 H        -0.265602        -2.266101        -0.244750
 H        -0.919595         1.430795         1.065216
 H         0.019104         2.204733        -0.316336
 H        -2.804865         1.917188        -0.619558
 H        -1.865726         2.005014        -1.974250
