19
Iteration:  1948
 O        -4.072155         0.321198        -1.419946
 C        -2.632617         0.051467        -1.501924
 C        -2.217454        -1.084124        -2.384633
 C        -2.089994        -1.201428        -0.881897
 C        -0.695729        -1.344837        -0.147543
 C         0.034753         0.023264         0.051767
 O         1.268963         0.007387         0.036241
 C        -0.907763         1.178906         0.119979
 C        -1.673230         1.248245        -1.273751
 H        -4.354811         1.004411        -1.955994
 H        -3.092221        -1.503858        -2.993987
 H        -1.278829        -0.953644        -2.858557
 H        -2.721748        -1.877521        -0.309962
 H        -0.977440        -1.562440         0.917761
 H        -0.012602        -2.133856        -0.541436
 H        -1.720471         1.139867         0.909714
 H        -0.208596         2.066664         0.097471
 H        -2.084426         2.154116        -1.503662
 H        -1.074421         1.231045        -2.200522
