19
Iteration:  1828
 O        -4.036754         0.165026        -1.211399
 C        -2.573231         0.042192        -1.509705
 C        -2.231524        -0.952379        -2.553172
 C        -2.081547        -1.211913        -0.943301
 C        -0.834044        -1.266298        -0.103848
 C         0.031511        -0.037489         0.033191
 O         1.261624        -0.104597         0.322177
 C        -0.685038         1.293886        -0.203394
 C        -1.824819         1.322078        -1.306582
 H        -4.353566         0.601785        -2.110371
 H        -3.068873        -1.551217        -2.956891
 H        -1.330142        -0.813038        -3.206231
 H        -2.796284        -1.988910        -0.676053
 H        -1.118936        -1.740756         0.864019
 H        -0.153413        -2.057383        -0.493621
 H        -1.185775         1.436667         0.748372
 H         0.052160         2.107528        -0.479569
 H        -2.422501         2.229910        -1.025673
 H        -1.395161         1.800481        -2.174282
