19
Iteration:  4578
 O        -4.101873         0.217319        -1.337754
 C        -2.675379         0.009093        -1.396583
 C        -2.050847        -0.749390        -2.534926
 C        -2.036080        -1.268805        -1.094089
 C        -0.786592        -1.291513        -0.176214
 C         0.102859        -0.003945        -0.161565
 O         1.054513        -0.035214         0.524137
 C        -0.466870         1.219178        -0.716506
 C        -1.976039         1.212997        -0.692032
 H        -4.481697        -0.494013        -0.858760
 H        -2.713907        -1.365697        -3.146235
 H        -1.213319        -0.375568        -3.099975
 H        -2.748301        -2.080438        -0.949197
 H        -0.923676        -1.365197         0.880731
 H        -0.169208        -2.108642        -0.369705
 H         0.117276         2.075768        -0.272719
 H        -0.137712         1.146699        -1.798555
 H        -2.463483         1.239255         0.300251
 H        -2.408196         2.165771        -1.190542
