19
Iteration:  4865charge 0 multiplicity 1
 O        -4.003507         0.176737        -1.096154
 C        -2.619906         0.084398        -1.340004
 C        -2.255999        -0.837133        -2.551717
 C        -1.983520        -1.300890        -1.216578
 C        -0.619159        -1.305267        -0.600417
 C         0.038906        -0.052370        -0.045142
 O         0.802732        -0.015702         0.865854
 C        -0.423655         1.192003        -0.818480
 C        -1.913334         1.296537        -0.802380
 H        -4.212378         1.113280        -0.848203
 H        -2.996846        -1.439442        -3.024362
 H        -1.412120        -0.595328        -3.074129
 H        -2.615646        -2.109114        -0.855607
 H        -0.498607        -2.110492         0.081928
 H         0.127211        -1.676098        -1.492215
 H         0.018115         2.285522        -0.571714
 H         0.000111         0.826945        -1.763169
 H        -2.268298         1.273175         0.215169
 H        -2.186494         2.203784        -1.248545
