19
Iteration:  3078charge 0 multiplicity 1
 O        -4.032398         0.208145        -1.595945
 C        -2.635458         0.017078        -1.356212
 C        -1.854497        -0.848072        -2.300021
 C        -2.002793        -1.336044        -0.920936
 C        -0.939421        -1.279755         0.075313
 C        -0.008018        -0.062886        -0.084922
 O         1.181341        -0.164482        -0.181489
 C        -0.690262         1.314541        -0.096239
 C        -1.952675         1.436699        -1.025092
 H        -4.586175        -0.246600        -0.863652
 H        -2.429490        -1.461661        -3.095737
 H        -0.892083        -0.555810        -2.531393
 H        -2.898268        -2.009422        -0.715420
 H        -1.322888        -1.337201         1.113016
 H        -0.268897        -2.154593        -0.112391
 H        -1.012852         1.564176         0.938610
 H         0.152584         1.932112        -0.333713
 H        -2.784704         1.861518        -0.426083
 H        -1.901620         2.085189        -1.855303
