19
Iteration:  1182charge 0 multiplicity 1
 O        -4.074509         0.264642        -1.530700
 C        -2.539958         0.137706        -1.456533
 C        -2.151563        -1.123907        -2.415060
 C        -2.128914        -1.143402        -0.820792
 C        -0.730540        -1.331449        -0.141503
 C         0.027052        -0.121844        -0.044348
 O         1.249213        -0.007579         0.083402
 C        -0.869492         1.115396         0.029214
 C        -1.742773         1.439299        -1.232468
 H        -4.270690         0.640520        -0.690192
 H        -2.995590        -1.596836        -2.780052
 H        -1.155258        -1.038441        -2.932977
 H        -2.949994        -1.789837        -0.444596
 H        -0.961362        -1.603518         0.926813
 H        -0.004754        -2.083770        -0.514740
 H        -1.570155         1.048146         0.814238
 H        -0.128774         1.963204         0.225606
 H        -2.507178         2.251642        -1.143449
 H        -1.177260         1.713708        -2.133856
