19
Iteration:  3131
 O        -4.012226         0.054432        -1.773086
 C        -2.628012         0.092557        -1.418015
 C        -1.878137        -0.862590        -2.257413
 C        -2.157033        -1.300200        -0.798979
 C        -0.918970        -1.241790         0.085157
 C        -0.004480        -0.110197        -0.138229
 O         1.226962        -0.086039        -0.305892
 C        -0.680775         1.257490        -0.028827
 C        -1.909052         1.430840        -0.810899
 H        -4.404837         0.580777        -0.960031
 H        -2.518230        -1.153320        -3.221846
 H        -0.845563        -0.749382        -2.387280
 H        -2.962850        -2.051827        -0.670090
 H        -1.314542        -1.057182         1.075860
 H        -0.519401        -2.240493         0.194802
 H        -0.955358         1.208232         0.986313
 H         0.098939         1.967276        -0.144605
 H        -2.800944         2.049151        -0.379464
 H        -1.653810         2.026722        -1.651443
