19
Iteration:  2071
 O        -4.026979         0.291945        -1.393039
 C        -2.652491         0.047543        -1.490650
 C        -2.109805        -1.093884        -2.304255
 C        -2.105467        -1.269087        -0.908555
 C        -0.745698        -1.243044        -0.170965
 C         0.020396        -0.012953        -0.068545
 O         1.207641        -0.081853         0.123831
 C        -0.827481         1.254147        -0.047471
 C        -1.774956         1.322689        -1.220497
 H        -4.105008         0.931416        -2.147668
 H        -2.902513        -1.614780        -2.915012
 H        -1.110977        -0.969656        -2.688088
 H        -2.832857        -1.907096        -0.372677
 H        -0.872313        -1.650993         0.872984
 H         0.040311        -1.904946        -0.585005
 H        -1.337577         1.145763         1.022599
 H        -0.147357         2.100048        -0.047629
 H        -2.490005         2.018911        -0.871281
 H        -1.350488         1.701243        -2.225794
