19
Iteration:  3891charge 0 multiplicity 1
 O        -3.776501         0.365324        -0.766317
 C        -2.564673         0.017269        -1.481713
 C        -2.581068        -1.071119        -2.368832
 C        -1.848694        -1.331637        -1.057506
 C        -0.335478        -1.185638        -1.021301
 C        -0.091428         0.010978        -0.005563
 O         0.583680        -0.010705         1.075352
 C        -0.754437         1.324627        -0.462465
 C        -1.651660         1.109897        -1.664084
 H        -3.639060        -0.005654         0.094146
 H        -3.331196        -1.812380        -2.230092
 H        -2.009221        -1.067451        -3.309851
 H        -2.291383        -2.015271        -0.293132
 H         0.113408        -2.082024        -0.657382
 H         0.042568        -0.957105        -2.026743
 H        -1.220520         1.802923         0.402879
 H         0.098716         1.998839        -0.792853
 H        -2.210967         2.181508        -1.561093
 H        -1.118586         1.073766        -2.584471
