19
Iteration:  3314charge 0 multiplicity 1
 O        -3.957515         0.213316        -1.605324
 C        -2.587201         0.084873        -1.517327
 C        -2.177271        -1.080359        -2.353155
 C        -2.084503        -1.201543        -0.848609
 C        -0.772864        -1.338887        -0.066559
 C         0.088706        -0.079292         0.040759
 O         1.268637        -0.042287        -0.160488
 C        -0.854259         1.325134         0.183985
 C        -1.889678         1.340809        -1.108989
 H        -4.490719         0.387348        -0.880040
 H        -3.052076        -1.577651        -2.795005
 H        -1.260057        -0.890254        -3.025961
 H        -2.940857        -1.834481        -0.661276
 H        -0.765645        -1.582454         1.054728
 H        -0.087654        -2.016920        -0.611117
 H        -1.359844         1.381790         1.225728
 H        -0.251538         2.254191         0.153780
 H        -2.629996         2.017705        -0.961228
 H        -1.369271         1.790585        -2.021531
