19
Iteration:  2540
 O        -4.017037         0.165321        -1.266979
 C        -2.528727         0.086716        -1.512491
 C        -2.257475        -1.085786        -2.485489
 C        -2.108044        -1.307118        -0.982616
 C        -0.756528        -1.402933        -0.167699
 C        -0.029166        -0.021190         0.082783
 O         1.205592         0.079189         0.130570
 C        -0.812306         1.314061         0.006635
 C        -1.646745         1.343044        -1.327899
 H        -4.221498         1.114420        -1.364353
 H        -3.192011        -1.527150        -2.970143
 H        -1.406453        -0.758538        -3.089909
 H        -3.000863        -1.754431        -0.446258
 H        -1.207646        -1.629404         0.820152
 H        -0.129910        -2.292520        -0.197037
 H        -1.523525         1.279829         0.827298
 H        -0.013125         2.117832         0.074952
 H        -2.214731         2.335637        -1.391800
 H        -0.997695         1.354698        -2.233148
