19
Iteration:  2708
 O        -4.005324         0.258048        -1.262902
 C        -2.584733         0.037551        -1.504683
 C        -2.243655        -1.005684        -2.495122
 C        -2.062674        -1.262799        -0.971325
 C        -0.768874        -1.296848        -0.224394
 C         0.018117        -0.000932        -0.020630
 O         1.171280        -0.041870         0.298570
 C        -0.751445         1.312699        -0.101061
 C        -1.739955         1.275084        -1.299734
 H        -4.310780        -0.475668        -0.738960
 H        -3.243846        -1.230446        -3.017266
 H        -1.450788        -0.707024        -3.133399
 H        -2.706747        -2.085163        -0.686117
 H        -0.973363        -1.507872         0.811320
 H         0.004579        -2.045661        -0.450502
 H        -1.394942         1.530532         0.763080
 H        -0.001693         2.079724        -0.226655
 H        -2.338540         2.111322        -1.116712
 H        -1.201385         1.444130        -2.163708
