19
Iteration:  3239
 O        -3.985743         0.119253        -1.626621
 C        -2.559003         0.057610        -1.426669
 C        -1.894677        -0.930037        -2.307345
 C        -2.012198        -1.206345        -0.827579
 C        -0.900156        -1.277819         0.085383
 C        -0.039567        -0.048310        -0.032546
 O         1.128576        -0.182749        -0.390548
 C        -0.842413         1.287869         0.162320
 C        -1.854670         1.473543        -1.057617
 H        -4.558851         0.131716        -0.794242
 H        -2.531972        -1.670311        -2.900643
 H        -0.929001        -0.741361        -2.859804
 H        -2.826163        -1.924236        -0.775576
 H        -1.328435        -1.446774         1.106338
 H        -0.158120        -2.014964        -0.240416
 H        -1.325509         1.413645         1.203066
 H        -0.071629         2.054135         0.089429
 H        -2.617920         2.220345        -0.645318
 H        -1.266706         1.986720        -1.882683
