19
Iteration:  1919charge 0 multiplicity 1
 O        -3.956080         0.275202        -1.363740
 C        -2.569582         0.078087        -1.468742
 C        -2.212323        -1.096402        -2.380384
 C        -2.142499        -1.218347        -0.858558
 C        -0.797314        -1.353700        -0.239906
 C         0.045535         0.048262        -0.072689
 O         1.224768        -0.043243         0.170622
 C        -0.822709         1.252965        -0.040887
 C        -1.740794         1.322972        -1.192566
 H        -4.312105         0.371559        -2.224350
 H        -3.032989        -1.552517        -2.908536
 H        -1.179480        -1.091358        -2.797601
 H        -2.895130        -1.789078        -0.333555
 H        -0.956562        -1.705218         0.793796
 H        -0.139739        -2.035317        -0.789202
 H        -1.413131         1.085457         0.881374
 H        -0.259247         2.146427         0.130029
 H        -2.527057         2.228083        -1.219921
 H        -1.264111         1.506017        -2.187477
