19
Iteration:  2987
 O        -3.973452         0.222720        -1.640887
 C        -2.592026         0.093663        -1.306934
 C        -2.000488        -0.961499        -2.348271
 C        -2.163104        -1.316214        -0.907262
 C        -0.877004        -1.358758        -0.045865
 C         0.007020        -0.091545        -0.168454
 O         1.243455         0.063875        -0.030610
 C        -0.678182         1.213375        -0.060582
 C        -1.959163         1.344837        -0.976645
 H        -4.444611         0.630407        -0.806610
 H        -2.751809        -1.529826        -2.871500
 H        -0.993003        -0.909217        -2.922946
 H        -3.008997        -1.888331        -0.593516
 H        -1.101083        -1.552294         1.005306
 H        -0.226883        -2.189666        -0.325956
 H        -0.904287         1.258797         0.974497
 H         0.130971         1.945498        -0.358033
 H        -2.750250         2.033661        -0.549669
 H        -1.673278         1.808271        -1.853260
