19
Iteration:  2326charge 0 multiplicity 1
 O        -3.898199         0.425276        -1.467988
 C        -2.582932         0.043211        -1.412115
 C        -2.000936        -0.982268        -2.320363
 C        -2.028797        -1.318460        -0.882911
 C        -0.820192        -1.374509         0.103040
 C        -0.090642        -0.099906        -0.116984
 O         1.142570         0.082142        -0.251592
 C        -0.986466         1.175844         0.140867
 C        -1.718957         1.290242        -1.221685
 H        -4.275988        -0.460667        -1.370692
 H        -2.701722        -1.520568        -3.052606
 H        -0.994719        -0.823188        -2.608527
 H        -2.971512        -1.786677        -0.669079
 H        -1.436076        -1.334743         1.021289
 H        -0.233851        -2.320680         0.050843
 H        -1.525900         1.147037         1.044924
 H        -0.248112         1.981445         0.108168
 H        -2.382554         2.132563        -1.212571
 H        -0.951371         1.348122        -2.087831
