19
Iteration:  3702
 O        -3.881581         0.275690        -0.867843
 C        -2.612257         0.079587        -1.452624
 C        -2.571114        -1.069507        -2.382094
 C        -1.902189        -1.336562        -1.074605
 C        -0.396268        -1.224884        -0.836229
 C        -0.050749         0.050890         0.035242
 O         0.785372        -0.040258         0.882327
 C        -0.824156         1.373618        -0.317928
 C        -1.559218         1.131048        -1.685006
 H        -3.756644         0.617342         0.077241
 H        -3.532783        -1.530196        -2.577331
 H        -1.840191        -0.956794        -3.190961
 H        -2.354997        -2.041469        -0.372511
 H        -0.060582        -2.028488        -0.110889
 H         0.181909        -1.379236        -1.754228
 H        -1.412438         1.723396         0.541979
 H        -0.028087         2.170655        -0.463862
 H        -2.331594         1.968534        -1.998323
 H        -0.909639         0.918465        -2.583590
