19
Iteration:  2728charge 0 multiplicity 1
 O        -3.993196         0.331395        -1.234288
 C        -2.608862        -0.002804        -1.452364
 C        -2.159865        -1.044007        -2.564596
 C        -2.109219        -1.355871        -1.060755
 C        -0.806388        -1.256179        -0.219688
 C         0.092640         0.056888        -0.086322
 O         1.194798        -0.081085         0.323463
 C        -0.777923         1.324212        -0.102928
 C        -1.828060         1.299277        -1.266073
 H        -4.391555        -0.022761        -0.337329
 H        -2.808605        -1.831660        -3.027649
 H        -1.215742        -0.831095        -3.068514
 H        -2.824939        -1.935262        -0.516979
 H        -0.963936        -1.456803         0.849628
 H        -0.083892        -2.085152        -0.393769
 H        -1.254763         1.185352         0.859517
 H        -0.161512         2.234496        -0.156675
 H        -2.458314         2.236993        -1.130816
 H        -1.252000         1.525489        -2.267756
