19
Iteration:  4140
 O        -4.000866         0.200254        -1.252236
 C        -2.627193         0.026500        -1.420264
 C        -2.278492        -1.057701        -2.431166
 C        -2.003860        -1.276868        -1.010787
 C        -0.671648        -1.256387        -0.410539
 C        -0.042993         0.012833         0.000122
 O         1.203406        -0.038707         0.331139
 C        -0.811784         1.296224        -0.096971
 C        -1.788179         1.303152        -1.286387
 H        -4.206715         0.675985        -0.445163
 H        -3.197329        -1.533901        -2.916748
 H        -1.470423        -0.668433        -3.079089
 H        -2.675356        -1.933814        -0.441564
 H        -0.749168        -1.694016         0.576464
 H         0.159513        -1.895880        -0.784581
 H        -1.348863         1.532725         0.803740
 H        -0.026281         2.096157        -0.199039
 H        -2.400868         2.182298        -1.396841
 H        -1.199216         1.354787        -2.297144
