19
Iteration:  2511charge 0 multiplicity 1
 O        -4.022198         0.205492        -1.220560
 C        -2.635894         0.032915        -1.475731
 C        -2.116253        -0.973084        -2.470316
 C        -2.112169        -1.180321        -0.928093
 C        -0.747094        -1.299709        -0.116646
 C         0.039623         0.048887        -0.075160
 O         1.195735        -0.103262         0.207376
 C        -0.823661         1.330196        -0.109588
 C        -1.767813         1.190611        -1.304686
 H        -4.333291         0.843813        -1.799874
 H        -2.701540        -1.613900        -3.095956
 H        -1.226411        -0.493994        -3.036767
 H        -2.823618        -1.935561        -0.640563
 H        -0.966566        -1.561753         0.932802
 H        -0.093949        -2.177550        -0.386740
 H        -1.475654         1.072192         0.766343
 H        -0.275830         2.311180        -0.013277
 H        -2.268434         2.111091        -1.312565
 H        -1.214580         1.289606        -2.226162
