19
Iteration:   465
 O        -4.058458         0.250045        -1.450523
 C        -2.615171         0.083648        -1.461526
 C        -2.279865        -1.142555        -2.323186
 C        -2.133806        -1.193132        -0.791195
 C        -0.692437        -1.304991        -0.264231
 C         0.023936        -0.067726        -0.017542
 O         1.218975        -0.008761         0.229536
 C        -0.788388         1.249008        -0.074021
 C        -1.639036         1.328064        -1.375864
 H        -4.169605         1.074448        -0.768603
 H        -3.090797        -1.686230        -2.748684
 H        -1.338166        -0.995817        -2.902236
 H        -3.008689        -1.775313        -0.372768
 H        -0.864778        -1.841451         0.652119
 H        -0.078704        -1.901919        -0.968414
 H        -1.614307         1.187884         0.650421
 H        -0.168009         2.131144         0.194066
 H        -2.255346         2.179738        -1.095036
 H        -1.043515         1.614980        -2.212467
