19
Iteration:  4793charge 0 multiplicity 1
 O        -3.949368         0.201075        -0.939877
 C        -2.611848         0.037406        -1.306072
 C        -2.253376        -0.762554        -2.584597
 C        -1.990030        -1.251557        -1.223726
 C        -0.581166        -1.367903        -0.597669
 C        -0.012626        -0.055252        -0.017438
 O         0.715515        -0.059671         0.929007
 C        -0.417555         1.258233        -0.864966
 C        -1.886850         1.309410        -1.057907
 H        -4.205042        -0.502639        -0.339408
 H        -3.009566        -1.239686        -3.205132
 H        -1.218082        -0.440126        -3.236324
 H        -2.715472        -1.943502        -0.862820
 H        -0.506598        -2.255944         0.090571
 H         0.111721        -1.641776        -1.328872
 H         0.083353         2.001863        -0.367625
 H         0.172243         1.213232        -1.828289
 H        -2.278782         1.551295         0.013388
 H        -2.230329         2.262628        -1.690829
