19
Iteration:  4420
 O        -4.016660         0.096271        -1.655356
 C        -2.602775         0.044103        -1.388578
 C        -1.835856        -0.861136        -2.307125
 C        -2.125159        -1.236918        -0.864719
 C        -0.897261        -1.295735         0.007761
 C         0.039908        -0.057640        -0.200574
 O         1.211342        -0.195230        -0.211901
 C        -0.662328         1.361653        -0.030091
 C        -2.080077         1.446310        -0.820794
 H        -4.569788        -0.158827        -0.942149
 H        -2.410683        -1.466678        -2.948098
 H        -0.850699        -0.541997        -2.760398
 H        -2.782957        -2.082474        -0.673193
 H        -1.169881        -1.229186         1.020989
 H        -0.224258        -2.110405        -0.215800
 H        -0.849795         1.471429         1.024958
 H         0.055474         2.142082        -0.245150
 H        -2.908633         2.023613        -0.252994
 H        -2.000869         1.998474        -1.703601
