19
Iteration:  2660charge 0 multiplicity 1
 O        -3.969867         0.459368        -1.268976
 C        -2.590558         0.010943        -1.426741
 C        -2.178163        -1.056042        -2.432326
 C        -2.093111        -1.281372        -0.906550
 C        -0.716032        -1.287451        -0.336830
 C         0.002613         0.002952        -0.098122
 O         1.200789        -0.000151         0.287590
 C        -0.896454         1.185135        -0.079114
 C        -1.767504         1.242813        -1.333264
 H        -4.590228        -0.297592        -1.199282
 H        -2.756983        -1.797441        -2.825120
 H        -1.110219        -0.956430        -2.769396
 H        -2.865222        -1.908186        -0.464160
 H        -0.711213        -1.619109         0.726420
 H         0.018130        -2.008180        -0.731825
 H        -1.551802         1.082084         0.750651
 H        -0.228072         2.072759         0.058620
 H        -2.567014         2.035242        -1.110240
 H        -1.023147         1.537692        -2.171579
