19
Iteration:  4935charge 0 multiplicity 1
 O        -4.088465        -0.006777        -1.103645
 C        -2.692963         0.130856        -1.376412
 C        -2.114517        -0.506527        -2.534922
 C        -1.958125        -1.243451        -1.164359
 C        -0.744629        -1.359914        -0.315591
 C        -0.024754        -0.026182        -0.035230
 O         1.033806        -0.135246         0.707603
 C        -0.467475         1.106757        -0.882604
 C        -1.944537         1.389997        -0.794143
 H        -4.606134        -0.087016        -1.881859
 H        -2.746617        -1.175320        -3.247896
 H        -1.204171         0.026911        -2.951016
 H        -2.746091        -2.019842        -1.022398
 H        -0.834417        -1.994070         0.649273
 H         0.097319        -1.943404        -0.901609
 H         0.096118         1.958527        -0.587661
 H        -0.055435         0.999577        -1.997180
 H        -2.153703         1.612887         0.222363
 H        -2.181477         2.268180        -1.466678
