19
Iteration:    57
 O        -4.111168         0.291091        -1.393264
 C        -2.613778         0.036449        -1.491872
 C        -1.883307        -0.928174        -2.426603
 C        -2.008059        -1.225430        -0.869585
 C        -0.872211        -1.200908         0.167938
 C         0.027969        -0.098061        -0.100370
 O         1.209451        -0.201052        -0.013966
 C        -0.837598         1.286229        -0.200905
 C        -1.897191         1.318186        -1.262340
 H        -4.292883        -0.235552        -0.480713
 H        -2.485908        -1.449160        -3.165181
 H        -0.780273        -0.622800        -2.535647
 H        -2.782253        -1.950495        -0.522862
 H        -1.253323        -1.088032         1.176743
 H        -0.351965        -2.192933         0.151941
 H        -1.255251         1.372044         0.803393
 H        -0.092359         2.035545        -0.346676
 H        -2.570283         2.103450        -1.054853
 H        -1.263226         1.604274        -2.116980
