19
Iteration:  2102charge 0 multiplicity 1
 O        -4.011388         0.111245        -1.441448
 C        -2.613120         0.155516        -1.439227
 C        -2.197463        -1.009478        -2.367072
 C        -2.129167        -1.151917        -0.832146
 C        -0.796412        -1.392338        -0.179894
 C         0.071063        -0.105013        -0.045764
 O         1.261504        -0.031396         0.207430
 C        -0.723637         1.281052        -0.131359
 C        -1.835032         1.459057        -1.189919
 H        -4.280536         0.172594        -2.384841
 H        -3.048461        -1.523845        -2.890691
 H        -1.225462        -1.077404        -2.829381
 H        -3.003934        -1.660475        -0.397202
 H        -0.912840        -1.878198         0.791419
 H        -0.171602        -2.139232        -0.683632
 H        -1.076183         1.425989         0.930292
 H         0.035506         2.034894        -0.257317
 H        -2.657729         1.994069        -0.815269
 H        -1.533198         1.810721        -2.284075
