19
Iteration:   580
 O        -3.814379         0.424483        -1.032065
 C        -2.583960         0.026548        -1.634137
 C        -2.566707        -1.246404        -2.527618
 C        -2.050434        -1.252810        -1.036970
 C        -0.622558        -1.356532        -0.453835
 C         0.002371        -0.028062         0.066740
 O         1.100492         0.057645         0.610841
 C        -0.907877         1.261829        -0.162841
 C        -1.551092         1.355209        -1.558335
 H        -3.773118         0.398658        -0.141641
 H        -3.487393        -1.797191        -2.513192
 H        -1.868308        -1.263552        -3.363974
 H        -2.718506        -1.732990        -0.367085
 H        -0.712480        -1.997918         0.457603
 H         0.082021        -1.906670        -1.089387
 H        -1.735602         1.081255         0.488923
 H        -0.364025         2.160477         0.163285
 H        -2.405342         2.056685        -1.628753
 H        -0.789940         1.459994        -2.362993
