19
Iteration:  4831
 O        -4.128325         0.052822        -1.151772
 C        -2.674122         0.115074        -1.239525
 C        -2.294369        -0.703417        -2.448266
 C        -1.915096        -1.217799        -1.118472
 C        -0.502756        -1.424343        -0.648009
 C         0.064385        -0.096913        -0.069957
 O         0.730545        -0.060320         0.894896
 C        -0.348468         1.170495        -0.812115
 C        -1.857050         1.395906        -1.014708
 H        -4.537563         0.599773        -0.386266
 H        -3.032748        -1.297593        -3.016671
 H        -1.539356        -0.375008        -3.037492
 H        -2.592469        -2.012331        -0.707525
 H        -0.349001        -2.195198         0.113263
 H         0.168984        -1.609508        -1.609995
 H         0.023084         2.163791        -0.287094
 H         0.210662         1.281885        -1.747911
 H        -2.152200         1.823518        -0.061980
 H        -2.086600         2.140959        -1.699329
