19
Iteration:  4175
 O        -4.088092         0.267054        -1.391591
 C        -2.663700         0.084090        -1.378229
 C        -2.189418        -1.049129        -2.427686
 C        -2.064108        -1.280675        -1.001834
 C        -0.733755        -1.334142        -0.235333
 C         0.081715        -0.049542        -0.012701
 O         1.355096         0.113633         0.242901
 C        -0.776815         1.168251        -0.126685
 C        -1.875005         1.298697        -1.220120
 H        -4.393407         0.227104        -0.430143
 H        -3.127231        -1.401451        -3.000044
 H        -1.481397        -0.753635        -3.157947
 H        -2.770772        -2.002791        -0.570200
 H        -0.983999        -1.684577         0.752797
 H        -0.128026        -2.121871        -0.801971
 H        -1.333593         1.090190         0.814100
 H        -0.138662         2.126877        -0.056076
 H        -2.539888         2.215722        -1.061721
 H        -1.277509         1.446634        -2.075678
