19
Iteration:  3680
 O        -3.844587         0.272725        -0.898774
 C        -2.601355         0.066102        -1.461479
 C        -2.577936        -1.160124        -2.531425
 C        -2.004423        -1.214778        -1.026792
 C        -0.487523        -1.197903        -0.741850
 C        -0.049536         0.006150         0.036839
 O         0.864775         0.058559         0.831342
 C        -0.788116         1.308817        -0.349812
 C        -1.557082         1.126968        -1.528059
 H        -3.714544         0.199111         0.062086
 H        -3.549394        -1.697489        -2.661686
 H        -1.889194        -1.032900        -3.337890
 H        -2.640375        -1.871009        -0.398661
 H         0.022864        -2.148175        -0.354314
 H        -0.005194        -1.028703        -1.714932
 H        -1.336226         1.197979         0.578349
 H        -0.123555         2.215200        -0.231945
 H        -2.026232         2.126406        -2.032372
 H        -0.843186         0.802023        -2.359559
