19
Iteration:  4092
 O        -3.984810         0.352211        -1.132222
 C        -2.576303         0.073690        -1.447864
 C        -2.387964        -1.066120        -2.482181
 C        -2.018549        -1.251758        -1.022752
 C        -0.579417        -1.342492        -0.521971
 C         0.050325        -0.001438        -0.001486
 O         1.106719         0.108062         0.504046
 C        -0.890015         1.182157        -0.142605
 C        -1.719513         1.215310        -1.413185
 H        -4.154824         0.228676        -0.120794
 H        -3.347212        -1.569337        -2.604711
 H        -1.550103        -1.282722        -3.167303
 H        -2.556176        -2.022893        -0.487305
 H        -0.406715        -2.039073         0.380327
 H         0.123588        -1.815084        -1.191513
 H        -1.597014         1.170855         0.724945
 H        -0.300618         2.053143        -0.056473
 H        -2.306168         2.154269        -1.537694
 H        -0.963496         1.337125        -2.288007
