19
Iteration:  1704charge 0 multiplicity 1
 O        -3.866559         0.482794        -1.368653
 C        -2.587657         0.049310        -1.465417
 C        -2.041747        -1.035864        -2.382092
 C        -2.088038        -1.279241        -0.785354
 C        -0.815487        -1.410822        -0.100734
 C        -0.043051        -0.022079        -0.006682
 O         1.144136         0.048668        -0.091787
 C        -1.000079         1.226551         0.102829
 C        -1.708575         1.197905        -1.309570
 H        -4.480770         0.042168        -1.980096
 H        -2.794178        -1.705409        -2.853210
 H        -1.045957        -0.731831        -2.679912
 H        -2.952588        -1.876390        -0.445473
 H        -0.772344        -2.004761         0.849140
 H        -0.237009        -2.020645        -0.819565
 H        -1.572485         0.945408         0.953588
 H        -0.384343         2.079502         0.345736
 H        -2.413976         1.981652        -1.365862
 H        -0.931396         1.371322        -2.071295
