19
Iteration:  2656charge 0 multiplicity 1
 O        -3.943043         0.469056        -1.278659
 C        -2.580772        -0.006386        -1.416804
 C        -2.196941        -1.079271        -2.419534
 C        -2.083754        -1.262680        -0.928960
 C        -0.732834        -1.284472        -0.339973
 C         0.026066         0.001573        -0.102644
 O         1.191247         0.003426         0.281174
 C        -0.886718         1.203270        -0.064145
 C        -1.782365         1.253580        -1.307613
 H        -4.581274        -0.295539        -1.248638
 H        -2.811359        -1.897082        -2.922934
 H        -1.208208        -1.036710        -2.730415
 H        -2.788585        -1.991317        -0.488626
 H        -0.797041        -1.649393         0.719568
 H         0.041538        -1.949136        -0.728698
 H        -1.592543         1.015492         0.813425
 H        -0.284378         2.072641         0.090807
 H        -2.508307         2.067749        -1.225812
 H        -1.152485         1.490659        -2.155521
