19
Iteration:  3317
 O        -3.960234         0.203499        -1.605313
 C        -2.578811         0.086641        -1.520994
 C        -2.171792        -1.091986        -2.356049
 C        -2.080831        -1.188259        -0.852012
 C        -0.775460        -1.351674        -0.082400
 C         0.075212        -0.089613         0.051045
 O         1.287153        -0.035654        -0.150534
 C        -0.840113         1.343881         0.166048
 C        -1.902824         1.353732        -1.106704
 H        -4.554424         0.377362        -0.770391
 H        -3.109228        -1.437552        -2.684933
 H        -1.258954        -0.983558        -3.013970
 H        -2.923654        -1.889857        -0.641915
 H        -0.831922        -1.706098         0.985419
 H        -0.112816        -2.045255        -0.605218
 H        -1.429664         1.369511         1.182420
 H        -0.265565         2.255506         0.177453
 H        -2.657353         2.177258        -0.967390
 H        -1.344026         1.720262        -1.970141
