19
Iteration:  3067charge 0 multiplicity 1
 O        -4.023629         0.097463        -1.585406
 C        -2.575460         0.054566        -1.350962
 C        -1.845368        -0.826040        -2.359212
 C        -2.162235        -1.232380        -0.884803
 C        -1.001653        -1.322319         0.078114
 C        -0.016318        -0.116079        -0.118889
 O         1.238370        -0.091338        -0.152014
 C        -0.670587         1.315075        -0.159271
 C        -1.923840         1.429392        -0.949879
 H        -4.510531        -0.266282        -0.745542
 H        -2.463323        -1.243567        -3.242562
 H        -0.865261        -0.580314        -2.597355
 H        -2.842233        -2.131995        -0.715983
 H        -1.368317        -1.342365         1.129832
 H        -0.433019        -2.275014        -0.086366
 H        -0.926228         1.403917         0.939231
 H         0.055138         2.081899        -0.350089
 H        -2.674577         2.127836        -0.510136
 H        -1.621867         1.776668        -1.899813
