19
Iteration:    58
 O        -4.108101         0.295535        -1.395334
 C        -2.613809         0.030661        -1.496666
 C        -1.882138        -0.919924        -2.412427
 C        -2.006692        -1.222742        -0.865345
 C        -0.868694        -1.206240         0.172575
 C         0.028529        -0.101231        -0.110705
 O         1.212307        -0.200294        -0.010061
 C        -0.849744         1.275762        -0.208743
 C        -1.905820         1.319225        -1.258715
 H        -4.288711        -0.246559        -0.450049
 H        -2.477237        -1.438765        -3.218389
 H        -0.762407        -0.596613        -2.510455
 H        -2.794692        -1.950251        -0.508469
 H        -1.239331        -1.089562         1.178180
 H        -0.350080        -2.211929         0.131803
 H        -1.234423         1.384572         0.808565
 H        -0.089805         2.020736        -0.354775
 H        -2.569087         2.148402        -1.105411
 H        -1.246875         1.626005        -2.135172
