19
Iteration:  3976charge 0 multiplicity 1
 O        -4.002585         0.292129        -0.937006
 C        -2.644781         0.025777        -1.436802
 C        -2.519664        -1.124472        -2.441752
 C        -1.889734        -1.328272        -1.087367
 C        -0.466088        -1.249856        -0.808744
 C         0.024025         0.058393         0.091292
 O         0.899117         0.032367         0.887395
 C        -0.718383         1.299188        -0.353428
 C        -1.670409         1.161201        -1.552626
 H        -3.818114         0.756366        -0.025756
 H        -3.538592        -1.449506        -2.755397
 H        -1.972603        -1.019617        -3.458029
 H        -2.545015        -2.032788        -0.512990
 H        -0.124923        -2.096513        -0.217725
 H         0.232750        -1.284521        -1.703466
 H        -1.205981         1.710982         0.559239
 H         0.083850         2.080393        -0.624855
 H        -2.228363         2.089062        -1.619401
 H        -1.181258         1.227760        -2.532112
