19
Iteration:  4855charge 0 multiplicity 1
 O        -4.007624         0.134665        -1.119231
 C        -2.649913         0.053022        -1.350949
 C        -2.287464        -0.761475        -2.553449
 C        -2.026145        -1.278730        -1.098733
 C        -0.559887        -1.331779        -0.636113
 C         0.066063        -0.036836        -0.071916
 O         0.822375        -0.043593         0.942392
 C        -0.384350         1.160215        -0.797806
 C        -1.941849         1.312032        -0.901312
 H        -4.296309         0.943890        -0.757255
 H        -3.108386        -1.098480        -3.122330
 H        -1.443057        -0.621181        -3.179908
 H        -2.648213        -2.078973        -0.748221
 H        -0.379235        -2.066625         0.104531
 H         0.155249        -1.504586        -1.581125
 H         0.276956         2.121474        -0.559352
 H        -0.173590         1.099686        -1.929414
 H        -2.246758         1.413700         0.105304
 H        -2.346114         2.207091        -1.337947
