19
Iteration:  1819
 O        -3.928005         0.163581        -1.240555
 C        -2.644030         0.060665        -1.528431
 C        -2.211460        -0.917624        -2.497783
 C        -2.108185        -1.228961        -0.932591
 C        -0.777015        -1.343015        -0.123898
 C         0.027376        -0.064694         0.068577
 O         1.194562        -0.086848         0.276088
 C        -0.715092         1.278699        -0.213350
 C        -1.803222         1.348189        -1.331039
 H        -4.426825         0.875998        -1.817325
 H        -3.054011        -1.568898        -2.868946
 H        -1.236651        -0.766490        -2.886773
 H        -2.915340        -1.892348        -0.588471
 H        -1.005208        -1.546532         0.911621
 H        -0.091362        -2.069896        -0.560265
 H        -1.249250         1.696425         0.595253
 H        -0.054784         2.148572        -0.296278
 H        -2.634073         1.958410        -0.859371
 H        -1.374249         1.608069        -2.282526
