19
Iteration:  3374
 O        -4.105191         0.319072        -1.342195
 C        -2.662019         0.061889        -1.396538
 C        -2.094704        -0.981006        -2.437401
 C        -2.055310        -1.321902        -0.993449
 C        -0.678134        -1.371264        -0.119661
 C         0.052609        -0.055465         0.011855
 O         1.262645         0.010551         0.125304
 C        -0.878378         1.222472        -0.070331
 C        -1.826895         1.295353        -1.320657
 H        -4.423712         0.812385        -0.571553
 H        -2.661619        -1.645910        -3.155474
 H        -1.182616        -0.708836        -2.835180
 H        -2.878023        -1.951341        -0.653409
 H        -0.772617        -1.783006         0.869654
 H         0.081142        -2.028660        -0.561971
 H        -1.634501         1.201404         0.787198
 H        -0.231890         2.134785        -0.081404
 H        -2.499333         2.240771        -1.112407
 H        -1.164850         1.531937        -2.100199
