19
Iteration:  2759
 O        -4.053981         0.227239        -1.322679
 C        -2.623369         0.100367        -1.470129
 C        -2.194869        -0.866348        -2.479401
 C        -2.023697        -1.266040        -0.906388
 C        -0.722092        -1.428809        -0.141465
 C        -0.037311        -0.062577        -0.006943
 O         1.205884         0.015296         0.215536
 C        -0.803189         1.175167        -0.131546
 C        -1.786627         1.336073        -1.337012
 H        -4.268102         0.374239        -0.438035
 H        -2.824041        -1.607699        -2.968390
 H        -1.244796        -0.671964        -2.972964
 H        -2.917651        -1.759478        -0.487277
 H        -0.787086        -1.887059         0.901400
 H         0.121687        -1.956056        -0.645274
 H        -1.398970         1.322681         0.806605
 H        -0.056903         2.026839        -0.161175
 H        -2.269475         2.379273        -1.149152
 H        -1.058770         1.323598        -2.294460
