19
Iteration:  1690
 O        -3.979933         0.533531        -1.403072
 C        -2.583674         0.021746        -1.444247
 C        -2.044619        -1.085327        -2.325885
 C        -2.095294        -1.288749        -0.839251
 C        -0.692983        -1.398680        -0.081554
 C        -0.089110        -0.066466         0.050234
 O         1.136469         0.043378        -0.122597
 C        -0.949045         1.135233         0.064139
 C        -1.671492         1.324926        -1.251826
 H        -4.539009        -0.105817        -1.857885
 H        -2.590924        -1.698396        -3.189461
 H        -1.094667        -0.832552        -2.818370
 H        -2.872891        -1.986789        -0.535191
 H        -0.934132        -1.792198         0.965645
 H         0.083436        -2.048772        -0.538465
 H        -1.922443         1.140374         0.672071
 H        -0.370395         2.033592         0.258158
 H        -2.299078         2.259387        -1.244235
 H        -1.011321         1.380762        -2.157422
