19
Iteration:  4683charge 0 multiplicity 1
 O        -4.002336         0.094249        -1.130092
 C        -2.608960        -0.000028        -1.349418
 C        -2.285863        -0.772020        -2.618642
 C        -1.968886        -1.290335        -1.097139
 C        -0.589365        -1.317361        -0.479497
 C        -0.010389         0.007264        -0.141855
 O         0.805217        -0.016321         0.847547
 C        -0.353026         1.247707        -0.865506
 C        -1.927828         1.276939        -0.816895
 H        -4.153065         1.025493        -0.899937
 H        -3.339708        -1.077929        -3.098765
 H        -1.372698        -0.584835        -3.268834
 H        -2.660402        -1.989202        -0.580920
 H        -0.726201        -1.868565         0.476249
 H         0.099136        -1.852637        -1.197437
 H         0.072915         1.970847        -0.252038
 H         0.079482         1.167626        -1.844204
 H        -2.268371         1.299407         0.235080
 H        -2.219574         2.108831        -1.389435
