19
Iteration:  4114
 O        -4.006490         0.212758        -1.131150
 C        -2.607666         0.047706        -1.501438
 C        -2.300449        -1.008764        -2.453430
 C        -2.082046        -1.264704        -0.926826
 C        -0.640489        -1.373519        -0.453027
 C         0.009500        -0.028138        -0.010816
 O         1.134657         0.040688         0.426947
 C        -0.837622         1.267964        -0.161922
 C        -1.692273         1.321970        -1.411339
 H        -4.104468         0.448180        -0.236629
 H        -3.005308        -1.593094        -2.956509
 H        -1.380032        -0.578857        -2.942526
 H        -2.840260        -1.803527        -0.364997
 H        -0.260609        -1.983788         0.429613
 H         0.067435        -1.733830        -1.165423
 H        -1.631384         1.221738         0.641201
 H        -0.236128         2.092733         0.065629
 H        -2.371251         2.169224        -1.557676
 H        -1.043261         1.434068        -2.403847
