19
Iteration:  2778
 O        -4.033736         0.152343        -1.421377
 C        -2.591560         0.069845        -1.395547
 C        -2.220278        -0.961950        -2.391352
 C        -2.144776        -1.221609        -0.890810
 C        -0.734783        -1.405395        -0.223441
 C        -0.008640        -0.066489        -0.019839
 O         1.229264         0.032768         0.146067
 C        -0.829173         1.286317        -0.002895
 C        -1.664330         1.369835        -1.312051
 H        -4.376598         0.713808        -0.778354
 H        -3.047715        -1.308289        -2.887472
 H        -1.281178        -0.703516        -2.998337
 H        -2.776024        -2.043831        -0.528330
 H        -0.812821        -1.903170         0.773819
 H        -0.206361        -2.182674        -0.775479
 H        -1.465620         1.124921         0.901868
 H        -0.080963         2.111430         0.153092
 H        -2.320537         2.249045        -1.284893
 H        -1.000334         1.412437        -2.138760
