19
Iteration:   643
 O        -3.994140         0.443137        -1.178010
 C        -2.653717        -0.022258        -1.435917
 C        -2.566982        -1.176833        -2.399286
 C        -2.007876        -1.284380        -0.943495
 C        -0.510487        -1.109055        -0.730992
 C         0.051256        -0.001921         0.074339
 O         1.048510        -0.103870         0.863123
 C        -0.745315         1.363475        -0.308859
 C        -1.702780         1.091655        -1.499892
 H        -3.968104         0.864593        -0.398695
 H        -3.434757        -1.778984        -2.786663
 H        -1.791875        -1.079644        -3.216888
 H        -2.510558        -1.909827        -0.258621
 H         0.030330        -1.989481        -0.282593
 H        -0.007551        -1.109931        -1.720742
 H        -1.134785         1.760171         0.687650
 H         0.064514         2.038862        -0.653976
 H        -2.140100         1.980574        -1.911536
 H        -0.921410         0.747724        -2.252534
