19
Iteration:  1979charge 0 multiplicity 1
 O        -3.868270         0.362614        -1.252975
 C        -2.540873         0.010568        -1.448180
 C        -2.109868        -1.076347        -2.405812
 C        -2.144979        -1.305863        -0.863548
 C        -0.817288        -1.371123        -0.109562
 C        -0.097260         0.004154         0.014799
 O         1.131198         0.115552        -0.043657
 C        -0.917324         1.168636         0.046340
 C        -1.631704         1.258482        -1.353642
 H        -4.184849         1.113435        -1.936634
 H        -2.920436        -1.426609        -3.160289
 H        -1.156615        -0.956696        -2.831043
 H        -2.933516        -2.041241        -0.609069
 H        -1.027126        -1.801644         0.867466
 H        -0.177901        -2.161248        -0.532791
 H        -1.878658         1.128718         0.601571
 H        -0.283116         2.062692         0.362521
 H        -2.366264         2.081381        -1.288684
 H        -0.725960         1.372106        -2.083655
