19
Iteration:  2292charge 0 multiplicity 1
 O        -3.930384         0.391384        -1.600229
 C        -2.550432         0.112187        -1.492818
 C        -2.058197        -1.148458        -2.255804
 C        -2.174536        -1.242703        -0.827939
 C        -0.787138        -1.338206        -0.013567
 C        -0.047702         0.039940        -0.006921
 O         1.189995        -0.015607        -0.297852
 C        -0.901472         1.216316         0.266869
 C        -1.751867         1.281783        -1.138635
 H        -4.526414        -0.451629        -1.668354
 H        -2.590595        -1.781900        -2.974439
 H        -1.002018        -1.036093        -2.621999
 H        -2.904470        -1.850327        -0.325850
 H        -0.901199        -1.898548         0.945454
 H         0.013430        -1.960852        -0.486547
 H        -1.613030         1.175295         0.999825
 H        -0.333247         2.160379         0.353210
 H        -2.443967         2.069497        -1.039381
 H        -1.156715         1.801615        -2.000365
