19
Iteration:   244charge 0 multiplicity 1
 O        -3.994400         0.389460        -1.540613
 C        -2.583076         0.002011        -1.351677
 C        -1.884788        -0.961535        -2.374562
 C        -1.994423        -1.367420        -0.855149
 C        -0.979016        -1.262145         0.258131
 C        -0.044220        -0.081027        -0.029653
 O         1.152440        -0.084478        -0.275813
 C        -0.754127         1.279990        -0.062183
 C        -1.836538         1.295163        -1.204607
 H        -4.414147         0.002280        -0.869221
 H        -2.650730        -1.550774        -2.917728
 H        -0.934397        -0.747689        -3.019644
 H        -2.770493        -2.124525        -0.670632
 H        -1.539892        -1.019357         1.177857
 H        -0.361903        -2.196069         0.484133
 H        -1.253427         1.486163         0.883056
 H        -0.040818         2.095089        -0.288071
 H        -2.708197         2.044692        -0.857290
 H        -1.497467         1.549932        -2.239100
