19
Iteration:  1183
 O        -4.077686         0.260122        -1.529755
 C        -2.535755         0.136506        -1.462210
 C        -2.150379        -1.116897        -2.412661
 C        -2.127459        -1.136460        -0.815855
 C        -0.724036        -1.334840        -0.139060
 C         0.017372        -0.118202        -0.040019
 O         1.253368        -0.013727         0.077523
 C        -0.871312         1.118021         0.023882
 C        -1.747815         1.435239        -1.230379
 H        -4.269651         0.626239        -0.738279
 H        -3.006642        -1.601554        -2.793780
 H        -1.166565        -1.013953        -2.924967
 H        -2.953405        -1.759386        -0.435502
 H        -0.998130        -1.559850         0.938968
 H         0.041315        -2.101344        -0.519958
 H        -1.590048         1.036539         0.826642
 H        -0.092081         1.925675         0.252225
 H        -2.513638         2.262416        -1.157825
 H        -1.149604         1.721521        -2.104229
