19
Iteration:  2084
 O        -4.023368         0.244416        -1.413487
 C        -2.564263         0.087607        -1.539053
 C        -2.135268        -1.103741        -2.372010
 C        -2.135314        -1.207042        -0.786614
 C        -0.752269        -1.354966        -0.175809
 C         0.068194        -0.017526         0.026118
 O         1.269922        -0.092604         0.143780
 C        -0.766868         1.270252        -0.093529
 C        -1.906623         1.401751        -1.212021
 H        -4.510594         0.685524        -2.122748
 H        -2.884005        -1.684413        -3.028808
 H        -1.230470        -1.073545        -2.931385
 H        -2.973191        -1.813044        -0.392484
 H        -0.831448        -1.807004         0.853173
 H        -0.185480        -2.010393        -0.863192
 H        -1.401267         1.381831         0.853812
 H        -0.100367         2.146508        -0.072304
 H        -2.646193         2.183942        -0.934673
 H        -1.428540         1.920437        -2.002417
