19
Iteration:  1256
 O        -3.938713         0.329429        -1.604622
 C        -2.568198         0.029185        -1.418268
 C        -1.924551        -0.986565        -2.373954
 C        -2.062474        -1.266182        -0.845800
 C        -0.890796        -1.348321         0.114394
 C        -0.023179        -0.056408         0.027580
 O         1.121557        -0.071358        -0.293387
 C        -0.806336         1.229309         0.074542
 C        -1.843670         1.381553        -1.117038
 H        -4.349390         0.179505        -0.826476
 H        -2.700247        -1.448432        -2.941332
 H        -0.935438        -0.787574        -2.908635
 H        -2.808734        -2.074453        -0.525199
 H        -1.323268        -1.352139         1.173241
 H        -0.438932        -2.322374        -0.193671
 H        -1.365278         1.022475         1.077339
 H        -0.182179         2.169052         0.090957
 H        -2.562921         2.189018        -0.870310
 H        -1.386233         1.785377        -2.064605
