19
Iteration:  3097charge 0 multiplicity 1
 O        -4.031685         0.309082        -1.646483
 C        -2.601492         0.001166        -1.488757
 C        -1.872398        -0.884296        -2.367009
 C        -2.037860        -1.251177        -0.841250
 C        -0.797932        -1.283565         0.161833
 C         0.014185        -0.064521        -0.040240
 O         1.182373        -0.243432        -0.236944
 C        -0.794312         1.349790        -0.109054
 C        -2.048160         1.324751        -0.869780
 H        -4.460669        -0.047811        -0.853891
 H        -2.579254        -1.386800        -3.104909
 H        -0.861033        -0.563116        -2.756146
 H        -2.460390        -2.221167        -0.739092
 H        -1.174348        -1.249583         1.161526
 H        -0.044856        -2.041104         0.047408
 H        -0.961993         1.512855         0.915942
 H        -0.133337         2.183319        -0.388371
 H        -2.926280         1.987445        -0.502999
 H        -1.716398         1.743449        -1.812383
