19
Iteration:  4576
 O        -4.106322         0.226484        -1.345508
 C        -2.694661         0.003536        -1.396813
 C        -2.046360        -0.741975        -2.545150
 C        -2.033868        -1.282351        -1.096135
 C        -0.780867        -1.288640        -0.169819
 C         0.096550        -0.002875        -0.157290
 O         1.071576        -0.029116         0.521744
 C        -0.473266         1.224568        -0.710556
 C        -1.961673         1.219189        -0.691718
 H        -4.532034        -0.515119        -0.823661
 H        -2.783455        -1.442165        -3.191181
 H        -1.155975        -0.376046        -3.085008
 H        -2.771420        -2.097849        -0.984384
 H        -0.973191        -1.364713         0.972942
 H        -0.154026        -2.168943        -0.362015
 H         0.106117         2.027340        -0.312397
 H        -0.175797         1.138167        -1.815127
 H        -2.477038         1.194938         0.341633
 H        -2.363710         2.154315        -1.137263
