19
Iteration:  2064
 O        -4.031296         0.319915        -1.400692
 C        -2.615147        -0.005276        -1.393068
 C        -2.096958        -1.046648        -2.350759
 C        -2.111045        -1.285075        -0.887276
 C        -0.758074        -1.260222        -0.170856
 C        -0.000960         0.017037        -0.118603
 O         1.184639        -0.048118         0.113950
 C        -0.812665         1.240665        -0.013583
 C        -1.768620         1.243626        -1.231432
 H        -4.081991         0.946473        -2.053152
 H        -2.795053        -1.717077        -2.916234
 H        -1.174196        -0.933033        -2.883237
 H        -2.842394        -1.987647        -0.463083
 H        -0.988300        -1.369559         0.908201
 H        -0.074823        -2.011463        -0.591458
 H        -1.437185         1.179146         0.832791
 H        -0.128054         2.100763         0.096849
 H        -2.283820         2.269165        -1.086090
 H        -1.251028         1.600803        -2.064375
