19
Iteration:  2827charge 0 multiplicity 1
 O        -3.975103         0.430530        -1.547577
 C        -2.601316         0.062038        -1.479820
 C        -2.185842        -1.056764        -2.315629
 C        -2.124615        -1.357611        -0.890149
 C        -0.708482        -1.403912        -0.169412
 C         0.068177        -0.008323         0.035191
 O         1.260391         0.118904        -0.018305
 C        -0.912737         1.142175         0.105924
 C        -1.767284         1.293751        -1.225656
 H        -4.375209         0.472946        -0.596170
 H        -3.082823        -1.622472        -2.673925
 H        -1.346567        -1.104540        -2.979233
 H        -2.925656        -1.846378        -0.362633
 H        -0.864967        -1.859444         0.842425
 H        -0.064873        -2.186576        -0.625078
 H        -1.679472         0.952601         0.881395
 H        -0.324529         2.016986         0.279741
 H        -2.435076         2.160032        -0.980917
 H        -1.234307         1.460875        -2.267821
