19
Iteration:  2267
 O        -3.930586         0.350304        -1.618080
 C        -2.531931         0.060044        -1.418853
 C        -2.070503        -1.082893        -2.290719
 C        -2.164358        -1.208744        -0.723486
 C        -0.817699        -1.293594        -0.078058
 C        -0.013698        -0.014745        -0.100293
 O         1.235354        -0.001417        -0.191320
 C        -0.912327         1.160467         0.172641
 C        -1.787003         1.363921        -1.114443
 H        -4.460144        -0.380465        -2.144500
 H        -2.833056        -1.686050        -2.728512
 H        -1.091152        -1.296129        -2.813402
 H        -2.820524        -1.970739        -0.270103
 H        -0.930695        -1.722109         0.920285
 H        -0.194424        -2.094999        -0.540819
 H        -1.545802         1.062282         1.032982
 H        -0.250925         1.999784         0.298381
 H        -2.566852         2.193507        -1.007739
 H        -1.169547         1.791368        -1.967023
