19
Iteration:  1133
 O        -4.023612         0.364171        -1.412830
 C        -2.664770         0.088172        -1.445013
 C        -2.252388        -1.051497        -2.382417
 C        -2.022389        -1.319851        -0.949786
 C        -0.740856        -1.352424        -0.265536
 C        -0.035767         0.039259         0.041657
 O         1.183669        -0.010677         0.224779
 C        -0.796515         1.274932        -0.054093
 C        -1.662367         1.215009        -1.293639
 H        -4.324491         0.521717        -0.398591
 H        -3.160568        -1.661219        -2.683967
 H        -1.404358        -0.819599        -2.985176
 H        -2.702780        -2.055281        -0.572157
 H        -0.898807        -1.940069         0.632423
 H         0.058970        -1.855238        -0.790634
 H        -1.503076         1.398740         0.814902
 H        -0.007682         1.991153         0.016547
 H        -2.180561         2.145663        -1.523179
 H        -0.902046         1.180096        -2.112870
