19
Iteration:  3766
 O        -3.909780         0.191132        -0.865571
 C        -2.563635         0.003925        -1.354714
 C        -2.575271        -1.142850        -2.315657
 C        -1.889905        -1.260310        -1.029974
 C        -0.388224        -1.114823        -0.900337
 C        -0.023705         0.008649        -0.045798
 O         0.574240        -0.120405         1.012865
 C        -0.564091         1.414576        -0.486732
 C        -1.648759         1.278651        -1.702585
 H        -4.019047         0.246808         0.086426
 H        -3.457746        -1.710173        -2.357789
 H        -1.996422        -0.985294        -3.253448
 H        -2.503074        -1.982114        -0.478499
 H         0.165112        -2.045453        -0.517772
 H        -0.009637        -0.762909        -1.850013
 H        -0.848094         1.892816         0.499421
 H         0.440536         1.904525        -0.717966
 H        -2.219653         2.152765        -1.892893
 H        -0.924369         1.177531        -2.597725
