19
Iteration:  1683charge 0 multiplicity 1
 O        -3.989934         0.516264        -1.420074
 C        -2.638202         0.147693        -1.435043
 C        -2.035541        -1.109055        -2.387618
 C        -2.043032        -1.339759        -0.841944
 C        -0.725871        -1.398594        -0.083570
 C        -0.043421        -0.081161         0.045384
 O         1.123747         0.052814        -0.119717
 C        -0.945650         1.128508         0.103514
 C        -1.675022         1.333975        -1.281509
 H        -4.512826        -0.316175        -1.791982
 H        -2.843444        -1.629126        -2.867237
 H        -0.992190        -0.972531        -2.620896
 H        -2.875039        -2.021025        -0.601187
 H        -0.954360        -1.598821         0.980066
 H         0.045434        -2.134016        -0.352769
 H        -1.676905         1.019319         0.858687
 H        -0.342557         2.025640         0.154512
 H        -2.304143         2.178027        -1.250992
 H        -0.966803         1.458767        -2.104842
