19
Iteration:  1287charge 0 multiplicity 1
 O        -3.984894         0.107239        -1.691951
 C        -2.551271         0.115362        -1.438821
 C        -1.837042        -0.918516        -2.297699
 C        -2.168531        -1.155509        -0.751679
 C        -0.919102        -1.266159         0.107513
 C        -0.048231        -0.091323        -0.108148
 O         1.159977        -0.171279        -0.361517
 C        -0.850940         1.209069         0.148566
 C        -1.817185         1.479927        -1.053287
 H        -4.465205         0.297520        -0.730806
 H        -2.491662        -1.449341        -2.928844
 H        -0.807051        -0.763787        -2.776670
 H        -2.776371        -2.034960        -0.431523
 H        -1.165953        -1.159570         1.222995
 H        -0.483443        -2.264669        -0.238928
 H        -1.281566         0.991396         1.189355
 H        -0.274507         2.141316         0.156862
 H        -2.308576         2.421595        -0.876920
 H        -1.004023         1.643341        -1.834254
