19
Iteration:  1481charge 0 multiplicity 1
 O        -4.067941         0.138826        -1.695233
 C        -2.607839         0.099961        -1.374671
 C        -1.960450        -0.838994        -2.288514
 C        -2.156713        -1.257760        -0.916174
 C        -0.840012        -1.260562         0.035217
 C         0.052989        -0.111189         0.002667
 O         1.302601        -0.230612        -0.085165
 C        -0.748627         1.269948        -0.121411
 C        -1.946473         1.458848        -1.038246
 H        -4.491686         0.156495        -0.904744
 H        -2.542070        -1.166739        -3.197522
 H        -0.907225        -0.725536        -2.488570
 H        -2.930287        -1.904075        -0.440218
 H        -1.278190        -1.351819         1.102204
 H        -0.328522        -2.205452        -0.251521
 H        -0.930899         1.518989         1.028487
 H        -0.076874         2.124188        -0.415850
 H        -2.708765         1.994767        -0.390744
 H        -1.632902         1.972568        -1.959674
