19
Iteration:  1127charge 0 multiplicity 1
 O        -4.050623         0.340194        -1.386358
 C        -2.615545         0.084462        -1.485508
 C        -2.283038        -1.040661        -2.352676
 C        -2.039326        -1.276353        -0.950525
 C        -0.728896        -1.359108        -0.276073
 C        -0.046926         0.002587         0.058119
 O         1.188410        -0.010876         0.243610
 C        -0.787632         1.272435        -0.039773
 C        -1.634417         1.244767        -1.335135
 H        -4.165591         0.469556        -0.399417
 H        -3.012502        -1.737080        -2.751031
 H        -1.557178        -0.731941        -3.137026
 H        -2.819177        -1.992749        -0.608133
 H        -0.896608        -1.992364         0.632384
 H         0.186169        -1.864359        -0.692433
 H        -1.464358         1.291567         0.802462
 H        -0.165807         2.218859        -0.014103
 H        -2.247224         2.138474        -1.554370
 H        -0.997599         1.078297        -2.209985
