19
Iteration:  4042
 O        -3.921134         0.346995        -1.064490
 C        -2.605578         0.015279        -1.506736
 C        -2.444719        -1.119939        -2.445829
 C        -2.019259        -1.248112        -0.920194
 C        -0.518403        -1.278960        -0.660776
 C        -0.065080         0.037167         0.011195
 O         1.047654         0.066714         0.608203
 C        -0.921380         1.265924        -0.116811
 C        -1.595072         1.117757        -1.509561
 H        -3.899079         0.261028        -0.099755
 H        -3.370428        -1.574727        -2.591623
 H        -1.763708        -0.764894        -3.330502
 H        -2.595687        -1.885308        -0.218749
 H        -0.031276        -2.181911        -0.378781
 H        -0.142304        -1.235006        -1.739589
 H        -1.692703         1.288365         0.658484
 H        -0.301519         2.211882        -0.010763
 H        -2.006077         2.068321        -1.788180
 H        -0.756561         1.007446        -2.187333
