19
Iteration:  3048charge 0 multiplicity 1
 O        -4.032443         0.018674        -1.603770
 C        -2.642455         0.101278        -1.436856
 C        -1.952017        -0.752704        -2.281446
 C        -2.096961        -1.206730        -0.894796
 C        -0.902500        -1.269619         0.031878
 C         0.017650        -0.088075        -0.135719
 O         1.269879        -0.165415        -0.090530
 C        -0.723128         1.210360        -0.075360
 C        -1.937076         1.423050        -1.049617
 H        -4.472177        -0.009105        -0.720470
 H        -2.563860        -1.279270        -3.058045
 H        -0.968438        -0.572578        -2.513389
 H        -3.043264        -1.739375        -0.631124
 H        -1.143741        -1.036966         1.115159
 H        -0.259879        -2.184451         0.000918
 H        -0.875920         1.537841         1.020327
 H         0.133998         1.827712        -0.347705
 H        -2.664537         1.970374        -0.496406
 H        -1.663779         2.088655        -1.976490
