19
Iteration:  4161
 O        -4.070983         0.251361        -1.351011
 C        -2.673374        -0.046950        -1.454288
 C        -2.324347        -0.970450        -2.531683
 C        -2.075419        -1.316106        -0.958654
 C        -0.678296        -1.367137        -0.224648
 C         0.087795         0.048228        -0.074307
 O         1.282458         0.062614         0.307469
 C        -0.763760         1.283790        -0.072198
 C        -1.757219         1.285583        -1.225939
 H        -4.290901         0.474636        -0.456147
 H        -3.268338        -1.511363        -2.865182
 H        -1.391532        -0.901072        -3.113150
 H        -2.810798        -2.088557        -0.679863
 H        -0.800760        -1.819774         0.764660
 H         0.075200        -2.014388        -0.718322
 H        -1.226838         1.264000         0.899673
 H        -0.137894         2.194268        -0.080530
 H        -2.451836         2.065937        -1.043171
 H        -1.423879         1.591237        -2.306033
