19
Iteration:  2370
 O        -3.968068         0.296597        -1.336123
 C        -2.557711        -0.002159        -1.511356
 C        -1.985060        -0.983062        -2.430418
 C        -2.037530        -1.266095        -0.905543
 C        -0.881437        -1.277245        -0.019923
 C        -0.081170        -0.024720         0.001207
 O         1.159821        -0.095189        -0.134253
 C        -0.872462         1.289806         0.067044
 C        -1.770714         1.385161        -1.183706
 H        -4.335469        -0.562065        -1.378090
 H        -2.576631        -1.744890        -3.049272
 H        -1.024298        -0.837392        -2.844973
 H        -2.899581        -1.890333        -0.605439
 H        -1.241232        -1.444294         1.047958
 H        -0.219109        -2.167820        -0.107054
 H        -1.474868         1.362536         0.955375
 H        -0.184922         2.120070        -0.064395
 H        -2.508312         2.182414        -1.363317
 H        -0.932645         1.583972        -2.074922
