19
Iteration:  1738
 O        -3.979382         0.312397        -1.368042
 C        -2.594130         0.032867        -1.533919
 C        -2.299191        -1.109763        -2.388926
 C        -2.054986        -1.258206        -0.921845
 C        -0.810214        -1.349145        -0.115946
 C        -0.018643        -0.003513        -0.005649
 O         1.186169         0.065405         0.015440
 C        -0.822247         1.201793         0.200412
 C        -1.564184         1.356661        -1.288501
 H        -4.344813         0.084526        -2.337529
 H        -3.041249        -1.681500        -2.941245
 H        -1.511642        -1.009489        -3.163667
 H        -2.910770        -1.725136        -0.399916
 H        -1.055259        -1.600511         0.949242
 H        -0.050732        -2.098733        -0.408603
 H        -1.568348         0.972089         0.902777
 H        -0.294508         2.152718         0.347107
 H        -2.264374         2.136652        -1.346078
 H        -0.861972         1.562432        -2.101546
