19
Iteration:  1219charge 0 multiplicity 1
 O        -4.010016         0.270986        -1.565105
 C        -2.583295         0.000405        -1.371869
 C        -1.976509        -0.969262        -2.343868
 C        -2.181122        -1.288026        -0.853549
 C        -0.889193        -1.302410        -0.050377
 C         0.011364        -0.002995         0.007680
 O         1.210296        -0.058967        -0.129405
 C        -0.835218         1.259539         0.033368
 C        -1.740916         1.355219        -1.178981
 H        -4.369997         0.608272        -0.812564
 H        -2.725642        -1.466154        -3.056242
 H        -1.038022        -0.854276        -2.825641
 H        -2.945735        -2.037139        -0.703543
 H        -1.087775        -1.580547         1.036760
 H        -0.193962        -2.221197        -0.419616
 H        -1.483987         1.151008         0.991904
 H        -0.066491         1.975302         0.308360
 H        -2.471041         2.184022        -1.107762
 H        -1.044852         1.499248        -2.020325
