19
Iteration:   649
 O        -3.972385         0.411499        -1.205200
 C        -2.665187        -0.046534        -1.430135
 C        -2.655340        -1.210414        -2.423570
 C        -1.993466        -1.212066        -0.968630
 C        -0.437603        -1.129146        -0.686667
 C         0.059457         0.014526         0.084278
 O         0.995545        -0.104177         0.861626
 C        -0.682458         1.316301        -0.285651
 C        -1.689149         1.174733        -1.511383
 H        -3.910344         0.717961        -0.197666
 H        -3.504842        -1.881293        -2.608034
 H        -1.886708        -1.061474        -3.125229
 H        -2.611015        -1.932712        -0.354864
 H         0.157259        -1.958400        -0.326214
 H        -0.023471        -1.102360        -1.715286
 H        -1.184291         1.804295         0.538025
 H         0.056513         1.993896        -0.721374
 H        -2.177136         2.149866        -1.792643
 H        -1.094690         0.744644        -2.302196
