19
Iteration:  2692charge 0 multiplicity 1
 O        -4.003921         0.266622        -1.293659
 C        -2.651048         0.080230        -1.329663
 C        -2.237298        -0.932750        -2.468822
 C        -2.029538        -1.236231        -0.999835
 C        -0.739655        -1.384860        -0.217458
 C         0.026652        -0.063949         0.082253
 O         1.199237         0.010029         0.268364
 C        -0.812481         1.241515        -0.161513
 C        -1.729120         1.361913        -1.381242
 H        -4.438617        -0.573699        -0.892556
 H        -2.781278        -1.740211        -2.785319
 H        -1.333336        -0.926675        -3.164032
 H        -2.920243        -1.748780        -0.589833
 H        -1.090383        -1.900657         0.730840
 H        -0.133650        -2.075633        -0.825463
 H        -1.294366         1.400361         0.814439
 H        -0.042221         2.062121        -0.107438
 H        -2.521739         2.225696        -1.447696
 H        -1.059794         1.350448        -2.400395
