19
Iteration:   391
 O        -3.893294         0.213739        -1.217354
 C        -2.528225         0.093680        -1.623468
 C        -2.181333        -1.076708        -2.449293
 C        -2.069026        -1.144085        -0.816229
 C        -0.820691        -1.327691         0.093919
 C        -0.015535        -0.030545        -0.013563
 O         1.195586        -0.078302        -0.061715
 C        -0.920698         1.224702        -0.022818
 C        -1.691898         1.349378        -1.374011
 H        -4.418098         0.423864        -2.111118
 H        -2.941507        -1.541957        -3.086873
 H        -1.203562        -1.132283        -3.011769
 H        -3.060162        -1.516050        -0.418550
 H        -1.212516        -1.048139         1.140687
 H        -0.421927        -2.342875         0.115717
 H        -1.752023         1.091930         0.672844
 H        -0.357240         2.087301         0.230788
 H        -2.342738         2.198756        -1.233230
 H        -0.949526         1.821507        -2.164793
