19
Iteration:   159charge 0 multiplicity 1
 O        -4.004922         0.329543        -1.700963
 C        -2.647203         0.035501        -1.376324
 C        -1.994717        -1.047644        -2.200045
 C        -2.152730        -1.194785        -0.693611
 C        -0.850134        -1.388090         0.005340
 C         0.085217        -0.153689        -0.142606
 O         1.289267         0.037307        -0.068571
 C        -0.783980         1.202062        -0.132474
 C        -1.940268         1.293372        -1.150353
 H        -4.318131         1.142041        -1.089419
 H        -2.612109        -1.679619        -2.875931
 H        -1.035227        -0.774742        -2.648002
 H        -2.783622        -1.959258        -0.302434
 H        -1.090076        -1.278648         1.063755
 H        -0.394434        -2.376447        -0.149143
 H        -1.122785         1.401732         0.880330
 H        -0.065622         2.023589        -0.347749
 H        -2.574420         2.001430        -0.738395
 H        -1.705786         1.944023        -2.015390
