19
Iteration:   432
 O        -4.043876         0.500057        -1.425003
 C        -2.612701        -0.037068        -1.392846
 C        -2.127177        -1.020660        -2.360166
 C        -2.164607        -1.369162        -0.881827
 C        -0.731327        -1.375909        -0.103121
 C        -0.030080        -0.028427        -0.014255
 O         1.190328         0.017063         0.067954
 C        -0.832787         1.355192        -0.054901
 C        -1.642999         1.176166        -1.288108
 H        -4.680584        -0.113362        -0.946364
 H        -2.868504        -1.404458        -3.074284
 H        -1.187214        -0.838472        -2.858870
 H        -2.902741        -2.137514        -0.529537
 H        -0.870191        -1.722814         0.913298
 H         0.065119        -2.076817        -0.401882
 H        -1.422216         1.550019         0.829845
 H        -0.073714         2.133319        -0.262942
 H        -2.217185         2.090244        -1.427185
 H        -1.049887         1.133926        -2.184207
