19
Iteration:  1626charge 0 multiplicity 1
 O        -4.014235         0.312006        -1.495702
 C        -2.580002         0.123055        -1.433875
 C        -1.959875        -1.058714        -2.367289
 C        -2.100715        -1.240874        -0.895007
 C        -0.866157        -1.387784        -0.062706
 C        -0.011418        -0.069254        -0.058218
 O         1.178090        -0.107652        -0.078500
 C        -0.833665         1.329605         0.054105
 C        -1.809708         1.383438        -1.139839
 H        -4.449171        -0.301214        -1.000350
 H        -2.627910        -1.743863        -3.004867
 H        -1.177854        -0.632640        -2.941844
 H        -2.824875        -2.040606        -0.775624
 H        -1.005519        -1.422565         1.043805
 H        -0.146161        -2.170312        -0.319137
 H        -1.261563         1.327451         1.028618
 H        -0.215587         2.171869         0.128124
 H        -2.446490         2.220690        -1.020646
 H        -1.091569         1.649636        -1.925819
