19
Iteration:  1611
 O        -4.005369         0.315748        -1.505844
 C        -2.662601         0.033226        -1.367821
 C        -1.916401        -0.903060        -2.401919
 C        -2.049513        -1.212280        -0.854528
 C        -0.806304        -1.375402         0.008790
 C        -0.065615        -0.101256        -0.098255
 O         1.162893        -0.086711        -0.045629
 C        -0.806383         1.197625        -0.038026
 C        -1.816384         1.430927        -1.181772
 H        -4.523351        -0.176229        -0.768474
 H        -2.445452        -1.545200        -3.001797
 H        -0.825580        -0.655700        -2.580281
 H        -2.874699        -1.876041        -0.589336
 H        -1.164456        -1.699451         1.020362
 H        -0.363190        -2.288758        -0.440465
 H        -1.417179         1.314990         0.905467
 H         0.084582         1.887421        -0.152329
 H        -2.641548         2.211439        -0.987174
 H        -1.432149         1.609677        -2.188668
