19
Iteration:  4180
 O        -4.074539         0.263973        -1.391457
 C        -2.691200         0.045979        -1.401181
 C        -2.196223        -1.003200        -2.399451
 C        -2.059844        -1.263331        -0.964694
 C        -0.678975        -1.325135        -0.252592
 C         0.059581        -0.059234        -0.023782
 O         1.339239         0.096977         0.211847
 C        -0.805739         1.151755        -0.100339
 C        -1.840561         1.328410        -1.234694
 H        -4.513240         0.140527        -0.508875
 H        -2.893925        -1.602279        -2.905739
 H        -1.253529        -0.732954        -2.993124
 H        -2.885497        -1.892672        -0.618241
 H        -1.134646        -1.636250         0.762699
 H        -0.223051        -2.155316        -0.733356
 H        -1.271828         1.087568         0.963766
 H        -0.237118         2.028351        -0.113194
 H        -2.470266         2.178569        -1.002951
 H        -1.351632         1.590790        -2.255143
