19
Iteration:  3793
 O        -3.891764         0.291167        -0.788742
 C        -2.547170        -0.035957        -1.362085
 C        -2.564857        -1.125133        -2.429158
 C        -1.820856        -1.230670        -1.068048
 C        -0.309579        -1.184520        -0.926058
 C        -0.006077         0.041705        -0.078511
 O         0.505662        -0.128405         1.050654
 C        -0.609109         1.438185        -0.535899
 C        -1.713786         1.147102        -1.588032
 H        -3.953619         0.413607         0.150092
 H        -3.576959        -1.616459        -2.627144
 H        -1.811441        -1.100769        -3.175791
 H        -2.365394        -1.659362        -0.227713
 H         0.130973        -2.028339        -0.475501
 H         0.105203        -0.948505        -1.931861
 H        -0.911214         1.916613         0.375450
 H         0.261821         1.993644        -0.869883
 H        -2.311097         2.121863        -1.874338
 H        -1.117034         0.969069        -2.431794
