19
Iteration:   849
 O        -3.903429         0.284281        -0.844701
 C        -2.604070         0.039120        -1.487625
 C        -2.741655        -1.122135        -2.373037
 C        -1.875724        -1.175213        -1.026114
 C        -0.221606        -1.149401        -0.943847
 C        -0.013573        -0.002105         0.049533
 O         0.512765        -0.121547         1.122770
 C        -0.508015         1.352812        -0.525812
 C        -1.594761         1.111676        -1.663169
 H        -3.648567         0.639141        -0.020519
 H        -3.643631        -1.858897        -2.304880
 H        -2.182100        -0.915895        -3.291704
 H        -2.525690        -1.629018        -0.247857
 H        -0.001745        -2.122719        -0.453513
 H         0.169723        -0.915595        -1.930101
 H        -1.025360         2.063628         0.147587
 H         0.360584         1.876591        -0.839609
 H        -1.998696         2.037358        -2.002206
 H        -1.124227         0.839051        -2.613285
