19
Iteration:  2304charge 0 multiplicity 1
 O        -3.912994         0.415862        -1.574182
 C        -2.550211        -0.025737        -1.438731
 C        -2.012762        -1.035511        -2.350667
 C        -2.135985        -1.313067        -0.737632
 C        -0.861938        -1.333545         0.021616
 C        -0.036176        -0.042091         0.012036
 O         1.135663         0.085385        -0.297181
 C        -0.900888         1.188428         0.147545
 C        -1.694801         1.347648        -1.160108
 H        -4.409401        -0.441037        -1.531270
 H        -2.826740        -1.593015        -2.891888
 H        -1.010982        -1.044801        -2.726854
 H        -2.959267        -1.975231        -0.570434
 H        -1.056591        -1.652876         1.076447
 H        -0.285057        -2.089332        -0.545310
 H        -1.525806         0.955087         0.968788
 H        -0.256404         2.052040         0.383840
 H        -2.458077         2.028806        -0.932327
 H        -1.019926         1.601676        -2.031156
