19
Iteration:  4669
 O        -4.076044         0.136831        -1.161138
 C        -2.652508         0.057676        -1.344013
 C        -2.274787        -0.847899        -2.546815
 C        -1.966803        -1.341587        -1.225299
 C        -0.635197        -1.303522        -0.509119
 C         0.037633        -0.007582        -0.070959
 O         0.917383        -0.006657         0.838577
 C        -0.397606         1.225242        -0.755403
 C        -1.897759         1.302882        -0.873690
 H        -4.259980         0.886224        -0.583846
 H        -3.121902        -1.431577        -2.962470
 H        -1.558159        -0.620676        -3.272003
 H        -2.608423        -2.222055        -0.952606
 H        -0.763398        -1.773420         0.407919
 H         0.141150        -1.888675        -0.936307
 H        -0.034732         2.207190        -0.333506
 H         0.078697         1.211404        -1.768750
 H        -2.210300         1.543060         0.147235
 H        -2.252968         2.256093        -1.450903
