19
Iteration:   405
 O        -3.893276         0.376560        -1.240980
 C        -2.515309         0.046526        -1.552567
 C        -2.158609        -1.129951        -2.443758
 C        -2.072145        -1.208851        -0.930863
 C        -0.886222        -1.228865         0.043951
 C         0.000176        -0.037666        -0.029690
 O         1.233993        -0.049681        -0.006183
 C        -0.924716         1.205287        -0.029431
 C        -1.724485         1.297912        -1.317134
 H        -4.514339        -0.150408        -1.803046
 H        -3.024432        -1.682595        -2.787163
 H        -1.288098        -1.076652        -3.159497
 H        -2.878687        -1.775590        -0.510472
 H        -1.334587        -1.318645         1.089798
 H        -0.204438        -2.101549        -0.025761
 H        -1.566747         1.114367         0.914473
 H        -0.313359         2.123457         0.031719
 H        -2.459055         2.151663        -1.269409
 H        -1.043156         1.439161        -2.209587
