19
Iteration:  2566
 O        -3.904296         0.357995        -1.231594
 C        -2.516150         0.028137        -1.502637
 C        -2.184708        -1.097492        -2.464699
 C        -2.084668        -1.304758        -0.900326
 C        -0.761846        -1.274953        -0.178507
 C        -0.061094        -0.012199         0.034659
 O         1.171750         0.061951         0.096188
 C        -0.957860         1.174584        -0.001879
 C        -1.714274         1.260934        -1.321176
 H        -3.991547         1.141589        -1.769530
 H        -3.050108        -1.657405        -2.701761
 H        -1.273067        -0.949692        -3.162363
 H        -2.915244        -1.882433        -0.537387
 H        -0.864952        -1.860431         0.741882
 H        -0.067493        -1.980493        -0.697278
 H        -1.621951         1.055159         0.915694
 H        -0.262418         2.054465         0.090766
 H        -2.381296         2.071676        -1.344412
 H        -1.044344         1.280867        -2.143925
