19
Iteration:  4939
 O        -4.056505         0.002703        -1.114018
 C        -2.714524         0.138849        -1.347876
 C        -2.100947        -0.531126        -2.559348
 C        -1.978283        -1.214482        -1.154756
 C        -0.727448        -1.357800        -0.331093
 C        -0.012294        -0.066031         0.001318
 O         1.041661        -0.134762         0.688318
 C        -0.455629         1.127482        -0.891174
 C        -1.956422         1.367715        -0.817476
 H        -4.718353        -0.088467        -1.897283
 H        -2.732823        -1.181314        -3.171340
 H        -1.321131         0.049066        -2.922561
 H        -2.713311        -2.017762        -1.022222
 H        -0.906689        -1.919635         0.585866
 H         0.028142        -1.919549        -0.736442
 H        -0.014008         2.074859        -0.528074
 H        -0.153278         1.011787        -1.882711
 H        -2.339438         1.523276         0.279847
 H        -2.113045         2.276905        -1.453002
