19
Iteration:  3574charge 0 multiplicity 1
 O        -3.954545         0.273395        -1.168957
 C        -2.641639         0.040761        -1.442445
 C        -2.475753        -1.144084        -2.461810
 C        -1.986621        -1.274454        -1.040355
 C        -0.546125        -1.257955        -0.491980
 C        -0.008986         0.074706        -0.017459
 O         1.115396        -0.007880         0.557486
 C        -0.869971         1.302140        -0.129337
 C        -1.669700         1.272077        -1.441061
 H        -4.026083         0.699249        -0.266376
 H        -3.373929        -1.748926        -2.914143
 H        -1.697979        -1.150189        -3.219488
 H        -2.505685        -2.071430        -0.441156
 H        -0.520626        -1.966092         0.305712
 H         0.211208        -1.645792        -1.211455
 H        -1.401581         1.305365         0.881991
 H        -0.043722         2.031296         0.050930
 H        -2.214611         2.261688        -1.517880
 H        -1.182063         1.162273        -2.372374
