19
Iteration:  4215
 O        -3.978303         0.171373        -1.429971
 C        -2.589004         0.045614        -1.347431
 C        -2.027715        -0.959101        -2.332367
 C        -2.087720        -1.265861        -0.916802
 C        -0.808226        -1.314998        -0.170419
 C        -0.050875         0.041127        -0.051160
 O         1.244589        -0.078501        -0.059702
 C        -0.884469         1.270511        -0.003942
 C        -1.839545         1.411600        -1.200923
 H        -4.405069         0.073924        -0.568322
 H        -2.798091        -1.564539        -2.973883
 H        -1.030369        -0.857842        -2.740545
 H        -2.888061        -1.948252        -0.548573
 H        -0.945907        -1.868192         0.827520
 H        -0.019034        -1.985557        -0.556832
 H        -1.395888         1.163450         1.008151
 H        -0.237211         2.152155         0.086512
 H        -2.481096         2.229131        -1.054119
 H        -1.170283         1.653264        -2.176925
