19
Iteration:   156
 O        -4.005123         0.342181        -1.696684
 C        -2.651254         0.022955        -1.422412
 C        -2.026428        -1.056039        -2.219913
 C        -2.152312        -1.212301        -0.687851
 C        -0.845521        -1.364102         0.013604
 C         0.097005        -0.140905        -0.163040
 O         1.295661         0.031976        -0.054506
 C        -0.774244         1.209114        -0.125152
 C        -1.941157         1.296858        -1.129190
 H        -4.291699         1.148739        -1.138395
 H        -2.608795        -1.823747        -2.882872
 H        -1.009441        -0.780759        -2.634355
 H        -2.824082        -2.014048        -0.258734
 H        -1.059582        -1.256245         1.092934
 H        -0.345074        -2.372384        -0.113448
 H        -1.154847         1.356234         0.888420
 H        -0.050870         1.992482        -0.334883
 H        -2.599171         2.026380        -0.648782
 H        -1.736676         1.945996        -1.960571
