19
Iteration:  4917
 O        -4.130612         0.023611        -1.096207
 C        -2.678742         0.089640        -1.191202
 C        -2.064702        -0.575732        -2.570380
 C        -2.019469        -1.229596        -1.191767
 C        -0.686340        -1.386000        -0.420642
 C         0.007751        -0.126512        -0.124037
 O         0.917543        -0.017584         0.761717
 C        -0.335986         1.149140        -0.883754
 C        -1.931826         1.358901        -0.807340
 H        -4.527559         0.163616        -1.927836
 H        -2.922859        -0.859830        -3.212271
 H        -1.185400        -0.183118        -2.962777
 H        -2.657935        -2.129046        -1.060683
 H        -0.903156        -1.878594         0.536153
 H         0.005409        -2.025586        -0.865071
 H         0.216166         2.037344        -0.565380
 H        -0.134346         0.948801        -1.893457
 H        -2.324315         1.523215         0.266460
 H        -2.218409         2.222171        -1.453721
