19
Iteration:  4820
 O        -4.088164         0.086941        -1.121396
 C        -2.707779         0.106730        -1.267160
 C        -2.243586        -0.701586        -2.444435
 C        -1.939985        -1.270524        -1.086542
 C        -0.483377        -1.361988        -0.670561
 C         0.004303        -0.105851        -0.151687
 O         0.740379        -0.063189         0.943003
 C        -0.329806         1.192859        -0.796601
 C        -1.906391         1.436481        -1.055642
 H        -4.256924         0.182442        -0.160286
 H        -3.123355        -1.176731        -2.924760
 H        -1.546044        -0.295769        -3.043369
 H        -2.599324        -2.178351        -0.928016
 H        -0.450518        -2.114628         0.135995
 H         0.246041        -1.866725        -1.505184
 H         0.299194         1.839140        -0.008954
 H         0.054751         1.016821        -1.799280
 H        -2.317704         1.866229        -0.156195
 H        -2.043830         2.071183        -1.848025
