19
Iteration:  2475charge 0 multiplicity 1
 O        -4.002261         0.289012        -1.326055
 C        -2.609163         0.057736        -1.445093
 C        -2.118318        -1.001707        -2.425069
 C        -2.061430        -1.269346        -0.883830
 C        -0.755931        -1.436432        -0.145393
 C        -0.013801        -0.048312        -0.029609
 O         1.147450         0.044896         0.196258
 C        -0.706329         1.244738        -0.211531
 C        -1.821123         1.362532        -1.200451
 H        -4.371919        -0.197343        -2.016134
 H        -3.022066        -1.521112        -2.965598
 H        -1.229986        -0.883488        -3.042502
 H        -2.987285        -1.839227        -0.551298
 H        -0.974620        -1.635440         0.899197
 H        -0.109371        -2.190015        -0.616378
 H        -1.198451         1.372406         0.792417
 H         0.001182         2.150372        -0.208422
 H        -2.576945         2.069738        -0.845880
 H        -1.379936         1.704972        -2.066343
