19
Iteration:  1371
 O        -3.949312         0.135450        -1.821071
 C        -2.592555         0.150659        -1.357173
 C        -1.866691        -0.930420        -2.276913
 C        -2.224242        -1.228291        -0.818881
 C        -0.967867        -1.289231         0.147515
 C         0.063401        -0.078811        -0.106883
 O         1.236273        -0.186325        -0.353663
 C        -0.658788         1.307207         0.122242
 C        -1.998089         1.379123        -0.956046
 H        -4.521535         0.248828        -1.006303
 H        -2.503533        -1.356268        -2.965478
 H        -0.774704        -0.853896        -2.478126
 H        -3.202555        -1.682886        -0.687787
 H        -1.236027        -1.313478         1.208524
 H        -0.479391        -2.258829         0.016628
 H        -0.861389         1.162984         1.205193
 H        -0.213691         2.304559        -0.064284
 H        -2.762069         2.107060        -0.548181
 H        -1.653404         2.001922        -1.760662
