19
Iteration:  3298charge 0 multiplicity 1
 O        -4.025135         0.270738        -1.632484
 C        -2.605504         0.002324        -1.428767
 C        -2.061633        -1.013706        -2.378077
 C        -2.097160        -1.277417        -0.813238
 C        -0.767695        -1.256481        -0.035483
 C        -0.003734         0.026611        -0.069551
 O         1.216859        -0.028271        -0.190935
 C        -0.831050         1.190097         0.104223
 C        -1.795909         1.306736        -1.059277
 H        -4.328784         0.644271        -0.739152
 H        -2.759397        -1.634688        -2.995369
 H        -1.071552        -0.845245        -2.692816
 H        -2.821859        -1.966277        -0.341899
 H        -1.124751        -1.496055         0.943462
 H        -0.113441        -2.101985        -0.260230
 H        -1.433474         1.080693         0.968406
 H        -0.181153         2.076956         0.191130
 H        -2.576913         2.142703        -0.684239
 H        -1.264107         1.760284        -1.874357
