19
Iteration:  2152
 O        -4.052784         0.246502        -1.256369
 C        -2.708212         0.008878        -1.513881
 C        -1.985354        -0.936497        -2.445280
 C        -2.055460        -1.295268        -0.946880
 C        -0.838517        -1.302438        -0.029605
 C         0.028588        -0.044652         0.048726
 O         1.279923        -0.114921         0.174650
 C        -0.764896         1.273581        -0.249948
 C        -1.894153         1.318633        -1.245977
 H        -4.336164         0.902557        -1.942117
 H        -2.563577        -1.475808        -3.146126
 H        -1.050733        -0.534163        -3.022374
 H        -2.842319        -1.999859        -0.760650
 H        -1.252430        -1.469868         1.002831
 H        -0.088104        -2.116044        -0.136696
 H        -1.088203         1.622383         0.803059
 H        -0.014505         2.083597        -0.521333
 H        -2.693342         2.158741        -0.930521
 H        -1.649015         1.724086        -2.231276
