19
Iteration:  2678
 O        -4.054321         0.353788        -1.251630
 C        -2.647348         0.091159        -1.511312
 C        -2.156477        -0.980248        -2.404153
 C        -2.061153        -1.215510        -0.893214
 C        -0.692267        -1.437016        -0.199178
 C        -0.005589        -0.074010        -0.004276
 O         1.209336         0.023573         0.275558
 C        -0.822926         1.223189        -0.140225
 C        -1.768439         1.310582        -1.383721
 H        -4.448900        -0.507328        -1.000923
 H        -2.944349        -1.428196        -3.132488
 H        -1.254567        -0.667802        -2.891165
 H        -2.755496        -2.027213        -0.567977
 H        -0.724407        -2.059118         0.738225
 H         0.052720        -1.978658        -0.828690
 H        -1.560665         1.223736         0.752856
 H        -0.140454         2.050282        -0.101256
 H        -2.256743         2.282865        -1.403429
 H        -1.160998         1.346051        -2.301391
