19
Iteration:   264
 O        -3.970443         0.283366        -1.609078
 C        -2.644147         0.082252        -1.392566
 C        -1.915792        -0.978884        -2.241332
 C        -2.127659        -1.287944        -0.735912
 C        -0.861632        -1.268479         0.114819
 C        -0.066481        -0.023627        -0.036763
 O         1.131458        -0.177694        -0.257124
 C        -0.760607         1.342190        -0.062420
 C        -1.810705         1.322336        -1.186685
 H        -4.552182        -0.173749        -0.934495
 H        -2.343200        -1.582942        -3.083710
 H        -0.916354        -0.496773        -2.462405
 H        -2.889105        -2.107112        -0.653919
 H        -1.180095        -1.495237         1.143407
 H        -0.069887        -2.002683        -0.156202
 H        -1.206277         1.546361         0.959573
 H         0.044895         2.076710        -0.206425
 H        -2.602126         2.139544        -1.014047
 H        -1.183619         1.429385        -2.057772
