19
Iteration:  2974
 O        -3.986827         0.184440        -1.635287
 C        -2.589786         0.051634        -1.460007
 C        -2.073177        -0.940139        -2.306946
 C        -2.118780        -1.286859        -0.813551
 C        -0.851530        -1.413426        -0.036260
 C         0.047037        -0.044236        -0.134439
 O         1.291886        -0.059278        -0.043188
 C        -0.783490         1.288348        -0.066841
 C        -1.905575         1.464487        -0.999262
 H        -4.409058         0.325297        -0.834583
 H        -2.871186        -1.307305        -3.096250
 H        -1.060374        -0.852845        -2.670045
 H        -2.898438        -2.041314        -0.601543
 H        -0.984146        -1.615457         1.006011
 H        -0.283712        -2.236813        -0.482779
 H        -1.121077         1.279793         0.932975
 H        -0.175380         2.234748        -0.075090
 H        -2.720503         1.998714        -0.449294
 H        -1.608608         2.050020        -1.881085
