19
Iteration:  1062charge 0 multiplicity 1
 O        -3.944241         0.478844        -1.222614
 C        -2.609394         0.052529        -1.479081
 C        -2.355668        -1.070239        -2.416941
 C        -2.009023        -1.389223        -1.024615
 C        -0.616497        -1.362799        -0.399793
 C        -0.053028        -0.038295         0.101790
 O         1.086022         0.024613         0.427597
 C        -0.870050         1.306420        -0.140963
 C        -1.683772         1.191736        -1.447218
 H        -3.990273         0.511020        -0.152680
 H        -3.250855        -1.662569        -2.698844
 H        -1.529336        -0.911357        -3.043502
 H        -2.762364        -2.043211        -0.543382
 H        -0.602881        -2.076899         0.484402
 H         0.187413        -1.740719        -1.110478
 H        -1.353234         1.396317         0.870743
 H        -0.238367         2.234508        -0.316290
 H        -2.080769         2.181503        -1.719952
 H        -0.847955         1.061549        -2.154018
