19
Iteration:  4001
 O        -3.865588         0.304968        -1.019057
 C        -2.608628         0.003024        -1.497962
 C        -2.621784        -1.139289        -2.436670
 C        -1.902287        -1.247397        -1.016918
 C        -0.420430        -1.299504        -0.670148
 C         0.033076         0.049205        -0.038184
 O         0.934201        -0.006254         0.802956
 C        -0.842769         1.319013        -0.235912
 C        -1.701662         1.211467        -1.539512
 H        -3.733474         0.868330        -0.241171
 H        -3.424590        -1.785040        -2.647616
 H        -2.047587        -1.092182        -3.371244
 H        -2.627695        -1.930349        -0.572682
 H        -0.048103        -2.121660        -0.049187
 H         0.159562        -1.273148        -1.610139
 H        -1.368081         1.336572         0.758250
 H        -0.153057         2.264643        -0.297542
 H        -2.488280         2.117769        -1.635537
 H        -1.160085         1.355803        -2.417382
