19
Iteration:  4267charge 0 multiplicity 1
 O        -3.997396         0.257103        -1.615490
 C        -2.628866        -0.020417        -1.386050
 C        -1.937450        -0.946259        -2.335597
 C        -2.047719        -1.271560        -0.849138
 C        -0.795559        -1.303613         0.049177
 C         0.070173        -0.053750        -0.025025
 O         1.176768         0.003968        -0.398940
 C        -0.922987         1.195660         0.181399
 C        -1.849703         1.328115        -1.090625
 H        -4.278017         0.661725        -0.839549
 H        -2.686196        -1.447298        -3.033723
 H        -1.050696        -0.516019        -2.742390
 H        -2.711752        -2.111495        -0.529248
 H        -1.173126        -1.117241         1.110398
 H        -0.311196        -2.260028         0.147465
 H        -1.660966         0.964803         1.006517
 H        -0.317669         2.024499         0.430469
 H        -2.625750         2.034893        -0.768508
 H        -1.266636         1.727169        -1.907392
