19
Iteration:  3220charge 0 multiplicity 1
 O        -3.945389         0.151833        -1.668364
 C        -2.544584         0.048652        -1.406019
 C        -1.917244        -0.946231        -2.367654
 C        -2.183572        -1.287497        -0.944605
 C        -0.877752        -1.230098         0.198423
 C         0.010653        -0.000965        -0.074602
 O         1.165554        -0.136085        -0.415104
 C        -0.754738         1.323656         0.159485
 C        -1.887143         1.335772        -0.952239
 H        -4.448928        -0.123249        -0.786318
 H        -2.657864        -1.144893        -3.037373
 H        -0.818207        -0.725241        -2.583405
 H        -3.029866        -1.968475        -0.622895
 H        -1.344106        -1.006406         1.133803
 H        -0.380625        -2.187382         0.247053
 H        -1.227042         1.190029         1.084186
 H        -0.163131         2.192104         0.225797
 H        -2.753937         2.136163        -0.713062
 H        -1.402125         1.737559        -1.795923
