19
Iteration:   146charge 0 multiplicity 1
 O        -4.027115         0.342747        -1.694235
 C        -2.684289         0.024935        -1.528370
 C        -2.107416        -1.113298        -2.277466
 C        -2.160696        -1.304743        -0.718369
 C        -0.783458        -1.250693         0.077998
 C         0.080620        -0.022264        -0.172910
 O         1.313222        -0.032000        -0.023139
 C        -0.713015         1.200475        -0.134923
 C        -1.936634         1.359361        -1.037396
 H        -4.140703         1.140887        -1.194380
 H        -2.706636        -1.926876        -2.866183
 H        -1.031713        -1.008818        -2.598426
 H        -3.047736        -1.927454        -0.442189
 H        -0.894242        -1.244168         1.161885
 H        -0.209016        -2.200450        -0.140392
 H        -1.092594         1.124674         0.879152
 H        -0.018899         2.048589        -0.180137
 H        -2.698534         1.776049        -0.496191
 H        -1.639034         1.800014        -1.965641
