19
Iteration:  1385
 O        -3.970238         0.095842        -1.811302
 C        -2.614710         0.088624        -1.382350
 C        -1.875525        -0.848678        -2.229847
 C        -2.152631        -1.162790        -0.773956
 C        -0.985399        -1.336577         0.106598
 C         0.008451        -0.074528        -0.093020
 O         1.227900        -0.220678        -0.333605
 C        -0.745674         1.286789         0.016897
 C        -1.892617         1.494068        -0.901385
 H        -4.624928         0.115404        -1.030117
 H        -2.427424        -1.402834        -3.050189
 H        -0.881681        -0.592345        -2.506483
 H        -2.804994        -2.037203        -0.525141
 H        -1.281044        -1.324883         1.140617
 H        -0.405620        -2.266582        -0.091945
 H        -1.130221         1.532744         0.956833
 H         0.126109         1.920206        -0.089338
 H        -2.615110         2.061935        -0.393462
 H        -1.540137         1.898971        -1.834516
