19
Iteration:  1685
 O        -3.989459         0.524887        -1.414890
 C        -2.631227         0.119241        -1.433678
 C        -2.041028        -1.112098        -2.378899
 C        -2.054081        -1.329786        -0.835852
 C        -0.711691        -1.397414        -0.083458
 C        -0.051077        -0.080040         0.051235
 O         1.119783         0.049556        -0.121084
 C        -0.943984         1.120581         0.093970
 C        -1.667820         1.337153        -1.273998
 H        -4.516026        -0.279593        -1.816883
 H        -2.756335        -1.621182        -2.931918
 H        -0.975737        -0.927212        -2.650832
 H        -2.890264        -2.013209        -0.612277
 H        -0.936003        -1.630293         0.935180
 H         0.075612        -2.099720        -0.383611
 H        -1.782276         1.051303         0.790289
 H        -0.337533         2.073818         0.144837
 H        -2.325381         2.219078        -1.258685
 H        -0.993022         1.437529        -2.112900
