19
Iteration:   445charge 0 multiplicity 1
 O        -4.020463         0.419886        -1.491837
 C        -2.645014         0.082893        -1.379448
 C        -2.161555        -1.002848        -2.337243
 C        -2.122636        -1.315996        -0.814856
 C        -0.727837        -1.404941        -0.171413
 C        -0.003968        -0.001002         0.034821
 O         1.213351         0.021413         0.123039
 C        -0.830258         1.244022        -0.087079
 C        -1.747134         1.191865        -1.321375
 H        -4.284344         0.244951        -0.587123
 H        -2.935984        -1.432431        -2.909082
 H        -1.098584        -0.924869        -2.743585
 H        -2.989206        -1.955736        -0.462393
 H        -0.729004        -1.904594         0.800380
 H        -0.219766        -1.920116        -0.968235
 H        -1.231630         1.572105         0.830721
 H        -0.100647         1.998929        -0.277365
 H        -2.302746         2.031757        -1.631551
 H        -0.899727         0.989121        -2.029400
