19
Iteration:  3931
 O        -3.869375         0.255558        -0.874063
 C        -2.613316         0.019837        -1.452629
 C        -2.515262        -1.107552        -2.360825
 C        -1.907690        -1.249882        -1.042794
 C        -0.405326        -1.217497        -0.835314
 C        -0.001059         0.033724        -0.048394
 O         0.689279        -0.111084         0.972127
 C        -0.672461         1.417781        -0.442387
 C        -1.660192         1.258807        -1.607330
 H        -3.899299        -0.222188         0.029566
 H        -3.515535        -1.736515        -2.524687
 H        -1.987654        -1.213860        -3.297987
 H        -2.465451        -1.886769        -0.344858
 H        -0.012272        -2.044746        -0.228954
 H         0.170754        -1.174807        -1.811201
 H        -1.191302         1.965475         0.366202
 H         0.134585         2.107289        -0.801510
 H        -2.399299         1.979813        -1.596418
 H        -1.223969         1.332647        -2.638585
