19
Iteration:  4585
 O        -4.064720         0.189236        -1.319843
 C        -2.628785         0.065371        -1.378007
 C        -2.051168        -0.758377        -2.477439
 C        -2.020204        -1.248492        -1.058481
 C        -0.803740        -1.274797        -0.249629
 C         0.047840        -0.046486        -0.176452
 O         1.060797        -0.058509         0.568025
 C        -0.438003         1.229732        -0.763212
 C        -2.051317         1.227868        -0.742208
 H        -4.402754        -0.621078        -0.843129
 H        -2.860233        -1.268070        -3.260581
 H        -1.205576        -0.344548        -3.080954
 H        -2.661370        -2.126084        -0.831887
 H        -1.072231        -1.453127         0.923930
 H        -0.054816        -2.130829        -0.552449
 H        -0.110752         2.068467        -0.229608
 H        -0.033643         1.318470        -1.798667
 H        -2.360057         1.366225         0.365141
 H        -2.397887         2.043247        -1.301446
