19
Iteration:  1199charge 0 multiplicity 1
 O        -3.990801         0.175165        -1.556615
 C        -2.632629         0.162436        -1.544850
 C        -2.149323        -0.964937        -2.314026
 C        -2.042708        -1.172963        -0.828510
 C        -0.766979        -1.354808        -0.067000
 C         0.032326        -0.057006        -0.026941
 O         1.217264        -0.093718        -0.028919
 C        -0.877578         1.199841         0.070473
 C        -1.750171         1.364605        -1.229566
 H        -4.332947         0.718226        -0.780134
 H        -2.884110        -1.495333        -2.987333
 H        -1.181746        -0.843516        -2.787061
 H        -2.898857        -1.602678        -0.321895
 H        -0.968674        -1.636702         1.010732
 H        -0.240115        -2.279842        -0.344374
 H        -1.539864         0.980659         0.994419
 H        -0.402938         2.178166         0.223773
 H        -2.379393         2.228388        -1.045042
 H        -1.107736         1.597862        -2.123014
