19
Iteration:   509charge 0 multiplicity 1
 O        -3.970571         0.413365        -1.194533
 C        -2.561373         0.049178        -1.510699
 C        -2.397908        -1.180274        -2.419792
 C        -2.068027        -1.274039        -0.894828
 C        -0.677752        -1.329589        -0.378495
 C         0.008806         0.017049         0.025184
 O         1.196978         0.019973         0.372548
 C        -0.838910         1.234446        -0.087585
 C        -1.648378         1.266799        -1.423027
 H        -4.470347         0.531299        -2.008007
 H        -3.289775        -1.679650        -2.712851
 H        -1.534007        -1.166149        -3.151450
 H        -2.887241        -1.826306        -0.316665
 H        -0.715973        -1.900937         0.573866
 H         0.046329        -1.882227        -1.029722
 H        -1.562140         1.182854         0.769996
 H        -0.167307         2.102515         0.018373
 H        -2.323024         2.106453        -1.178924
 H        -1.073921         1.481866        -2.321626
