19
Iteration:  3398charge 0 multiplicity 1
 O        -4.003863         0.196643        -1.311665
 C        -2.591006         0.014329        -1.475232
 C        -2.300753        -0.981565        -2.558315
 C        -2.006216        -1.236585        -0.989588
 C        -0.761608        -1.315924        -0.186243
 C        -0.008274        -0.005069         0.027548
 O         1.219832         0.023988         0.193010
 C        -0.790919         1.269149        -0.017477
 C        -1.754131         1.286690        -1.271382
 H        -4.208934         0.537437        -0.350462
 H        -3.088817        -1.657662        -2.753833
 H        -1.534232        -0.978754        -3.363141
 H        -2.749305        -1.973092        -0.737180
 H        -1.008067        -1.585178         0.817741
 H        -0.051111        -2.108158        -0.451346
 H        -1.295764         1.259365         0.946246
 H        -0.118846         2.152401        -0.163163
 H        -2.428825         2.221432        -1.158001
 H        -0.977922         1.509572        -2.039008
