19
Iteration:  4221charge 0 multiplicity 1
 O        -3.946393         0.152962        -1.448778
 C        -2.594195         0.092596        -1.321417
 C        -2.066458        -0.968576        -2.367213
 C        -2.093099        -1.282921        -0.914119
 C        -0.841681        -1.331634        -0.171928
 C        -0.028867         0.004709        -0.024848
 O         1.231958        -0.055899        -0.104452
 C        -0.872773         1.291895         0.035821
 C        -1.819976         1.388718        -1.202360
 H        -4.329751         0.143830        -0.599934
 H        -2.588395        -1.583254        -2.980163
 H        -0.992669        -0.895114        -2.657959
 H        -2.775820        -2.012096        -0.511929
 H        -1.057297        -1.615998         0.859753
 H        -0.000378        -1.960041        -0.487174
 H        -1.573133         1.351256         0.881799
 H        -0.141437         2.099707         0.080618
 H        -2.598819         2.200592        -0.957302
 H        -1.267877         1.658548        -1.994842
