19
Iteration:  2153
 O        -4.052557         0.243749        -1.259753
 C        -2.702299         0.014092        -1.509622
 C        -1.985933        -0.935321        -2.454689
 C        -2.057090        -1.293641        -0.943702
 C        -0.834873        -1.300872        -0.022917
 C         0.018772        -0.047190         0.049643
 O         1.276947        -0.111754         0.171183
 C        -0.761052         1.265331        -0.243543
 C        -1.888147         1.320828        -1.250800
 H        -4.362560         0.883863        -1.868792
 H        -2.546624        -1.471243        -3.165855
 H        -1.070381        -0.561536        -3.047226
 H        -2.853156        -1.999942        -0.757394
 H        -1.255622        -1.442109         0.999792
 H        -0.076333        -2.100054        -0.124609
 H        -1.075317         1.616736         0.766608
 H        -0.008886         2.060711        -0.509388
 H        -2.693224         2.147957        -0.956250
 H        -1.680642         1.742871        -2.199325
