19
Iteration:  4835charge 0 multiplicity 1
 O        -4.133949         0.055529        -1.150209
 C        -2.647358         0.101088        -1.265921
 C        -2.315652        -0.705526        -2.468808
 C        -1.939304        -1.220448        -1.099352
 C        -0.486311        -1.415529        -0.641318
 C         0.035395        -0.103152        -0.095751
 O         0.762383        -0.059195         0.925304
 C        -0.356633         1.182599        -0.837378
 C        -1.863172         1.367851        -0.955812
 H        -4.452628         0.664806        -0.504113
 H        -3.038010        -1.230413        -3.037044
 H        -1.441459        -0.340756        -3.124610
 H        -2.571211        -1.936687        -0.655136
 H        -0.330939        -2.233346         0.042293
 H         0.099509        -1.608847        -1.530233
 H        -0.090968         2.145939        -0.441097
 H         0.368139         1.313381        -1.744127
 H        -2.241879         1.858518        -0.051087
 H        -2.060979         2.209605        -1.744986
