19
Iteration:  2815
 O        -3.992331         0.441080        -1.521223
 C        -2.605264        -0.004797        -1.476109
 C        -2.206864        -1.156562        -2.416727
 C        -2.071988        -1.256235        -0.810704
 C        -0.773154        -1.376894        -0.172024
 C         0.045869         0.005683        -0.047062
 O         1.309773         0.042501         0.032336
 C        -0.882311         1.242200         0.140869
 C        -1.805197         1.274495        -1.217862
 H        -4.188364         0.650816        -0.611308
 H        -3.057957        -1.782140        -2.901958
 H        -1.348219        -1.106214        -2.982041
 H        -2.710672        -2.099680        -0.676979
 H        -0.856179        -1.867648         0.842553
 H        -0.094979        -1.901144        -0.869882
 H        -1.526389         0.920822         0.999427
 H        -0.481752         2.221887         0.455506
 H        -2.706905         1.989444        -1.222932
 H        -1.076317         1.789521        -2.021022
