19
Iteration:  2040
 O        -3.978701         0.274593        -1.307681
 C        -2.602047         0.034053        -1.461101
 C        -2.162122        -0.955160        -2.410848
 C        -2.148998        -1.296756        -0.955635
 C        -0.811164        -1.405617        -0.009886
 C         0.014188        -0.059948         0.023968
 O         1.263973         0.093161         0.004953
 C        -0.917011         1.260505         0.031638
 C        -1.670764         1.219404        -1.328346
 H        -4.209918         0.928866        -2.046820
 H        -2.931792        -1.410695        -3.096725
 H        -1.237333        -0.805099        -2.918424
 H        -2.942230        -1.994181        -0.599360
 H        -1.215233        -1.579324         1.017022
 H        -0.158156        -2.185197        -0.417731
 H        -1.602155         1.270073         0.916442
 H        -0.233099         2.096809         0.098352
 H        -2.096734         2.209108        -1.550160
 H        -0.922250         1.306521        -2.028400
