19
Iteration:  4116charge 0 multiplicity 1
 O        -4.020902         0.202764        -1.132500
 C        -2.601142         0.068858        -1.489293
 C        -2.288686        -1.002867        -2.463339
 C        -2.083097        -1.258975        -0.926641
 C        -0.642587        -1.379984        -0.429767
 C        -0.015715        -0.021078        -0.025634
 O         1.149199         0.028845         0.424027
 C        -0.834809         1.281919        -0.157363
 C        -1.705592         1.314630        -1.405936
 H        -4.079167         0.489790        -0.245884
 H        -2.994770        -1.622852        -2.923974
 H        -1.298503        -0.675764        -3.032472
 H        -2.821532        -1.861095        -0.387004
 H        -0.244384        -1.995086         0.397457
 H         0.050827        -1.751628        -1.198580
 H        -1.597285         1.224972         0.625595
 H        -0.245574         2.139740         0.037199
 H        -2.345360         2.127243        -1.550395
 H        -0.986315         1.467681        -2.393503
