19
Iteration:     9charge 0 multiplicity 1
 O        -4.002942         0.212592        -1.567866
 C        -2.556466         0.046527        -1.421080
 C        -2.042420        -1.016150        -2.373875
 C        -2.159275        -1.250110        -0.828062
 C        -0.797781        -1.298844         0.065678
 C        -0.054437         0.022884        -0.047375
 O         1.194794        -0.072840        -0.119969
 C        -0.785252         1.316350        -0.019466
 C        -1.773382         1.298233        -1.212533
 H        -4.292274         0.297786        -0.711671
 H        -2.976331        -1.387531        -2.823016
 H        -1.109344        -1.164213        -2.763353
 H        -3.057744        -1.777297        -0.594544
 H        -1.205926        -1.242619         1.126208
 H        -0.208486        -2.196215         0.053813
 H        -1.306367         1.399877         0.973309
 H         0.094705         2.007511        -0.122452
 H        -2.424539         2.183478        -0.903250
 H        -1.115752         1.493444        -2.006911
