19
Iteration:  2549
 O        -3.936208         0.224505        -1.267222
 C        -2.606011         0.055369        -1.534589
 C        -2.275021        -1.096567        -2.506087
 C        -2.066713        -1.248400        -0.961142
 C        -0.763730        -1.481547        -0.101447
 C        -0.015717        -0.015667         0.039215
 O         1.181338         0.095120         0.119038
 C        -0.842020         1.301547         0.017569
 C        -1.630753         1.318980        -1.291518
 H        -4.246734         1.153943        -1.383245
 H        -3.183279        -1.506414        -3.068169
 H        -1.409942        -1.100743        -3.087371
 H        -2.968063        -1.820422        -0.623220
 H        -1.144309        -1.673870         0.946607
 H         0.014817        -2.111342        -0.534993
 H        -1.524212         1.464900         0.825436
 H        -0.261331         2.196845         0.104938
 H        -2.435813         2.165889        -1.289023
 H        -0.920066         1.388384        -2.255542
