19
Iteration:   547
 O        -3.900995         0.513968        -1.101056
 C        -2.630059        -0.041764        -1.433996
 C        -2.323009        -0.983868        -2.465812
 C        -2.087775        -1.246596        -0.935549
 C        -0.635473        -1.352918        -0.462125
 C        -0.050414         0.008800         0.040046
 O         1.104271         0.031616         0.448811
 C        -0.902139         1.313637        -0.147138
 C        -1.569577         1.048780        -1.462815
 H        -4.407434        -0.396143        -0.805326
 H        -3.143214        -1.655624        -2.842223
 H        -1.620356        -0.913103        -3.261452
 H        -2.742259        -1.946616        -0.496226
 H        -0.768036        -2.060268         0.386757
 H         0.108843        -1.909815        -1.039059
 H        -1.673693         1.544611         0.563481
 H        -0.298389         2.219963        -0.232918
 H        -2.138037         1.856786        -1.988345
 H        -0.750097         0.875010        -2.213218
