19
Iteration:  3180charge 0 multiplicity 1
 O        -4.014705         0.264030        -1.746476
 C        -2.632535         0.090145        -1.383397
 C        -1.760527        -0.915158        -2.274924
 C        -2.063268        -1.284394        -0.769834
 C        -0.814955        -1.353327         0.202438
 C        -0.029868        -0.062032        -0.096748
 O         1.138841        -0.155513        -0.407012
 C        -0.780732         1.244889         0.035261
 C        -2.034442         1.397407        -0.950142
 H        -4.460112         0.407171        -0.947917
 H        -2.296934        -1.385585        -3.077208
 H        -0.710196        -0.616179        -2.564912
 H        -2.926036        -1.937485        -0.743842
 H        -1.122716        -1.453233         1.289520
 H        -0.018272        -2.141517         0.087224
 H        -1.057982         1.327293         1.137040
 H        -0.025757         2.026998        -0.292392
 H        -2.789981         1.944201        -0.517325
 H        -1.747013         1.954535        -1.892678
