19
Iteration:  2729charge 0 multiplicity 1
 O        -3.995256         0.332109        -1.234442
 C        -2.605755        -0.004576        -1.445075
 C        -2.145332        -1.048611        -2.563185
 C        -2.107828        -1.347236        -1.056111
 C        -0.814399        -1.262697        -0.228403
 C         0.094624         0.051908        -0.082872
 O         1.200244        -0.079246         0.322630
 C        -0.781578         1.323424        -0.104527
 C        -1.830864         1.305260        -1.272908
 H        -4.398319         0.004125        -0.329427
 H        -2.841418        -1.850968        -3.025490
 H        -1.246162        -0.797509        -3.073684
 H        -2.825069        -1.949450        -0.532159
 H        -0.958220        -1.440479         0.825575
 H        -0.093998        -2.088864        -0.388022
 H        -1.309839         1.220629         0.842571
 H        -0.169870         2.212660        -0.153044
 H        -2.417615         2.207450        -1.104786
 H        -1.286485         1.509644        -2.231980
