19
Iteration:  4566
 O        -4.140268         0.264073        -1.397178
 C        -2.755913         0.019572        -1.390261
 C        -2.050600        -0.729650        -2.579976
 C        -2.018735        -1.363202        -1.105642
 C        -0.783427        -1.311182        -0.115722
 C         0.059790        -0.054095        -0.062844
 O         1.219843         0.015389         0.501411
 C        -0.488428         1.211422        -0.760699
 C        -1.998523         1.234102        -0.666023
 H        -4.641377        -0.366095        -0.752812
 H        -2.750092        -1.312479        -3.346613
 H        -1.057446        -0.462670        -2.893782
 H        -2.584922        -2.309982        -1.064464
 H        -1.390665        -1.396685         0.782684
 H        -0.163612        -2.148078        -0.233518
 H        -0.040735         2.135629        -0.360800
 H        -0.302908         1.247098        -1.892476
 H        -2.172370         1.047932         0.446572
 H        -2.302646         2.295543        -0.966829
