19
Iteration:  1392charge 0 multiplicity 1
 O        -3.992264         0.108221        -1.794542
 C        -2.621952         0.122255        -1.390466
 C        -1.859771        -0.826384        -2.218825
 C        -2.134233        -1.224823        -0.779033
 C        -0.879621        -1.255455         0.106782
 C        -0.033307        -0.134531        -0.057760
 O         1.143805        -0.216449        -0.309228
 C        -0.705701         1.259087        -0.042192
 C        -1.907514         1.465267        -0.948321
 H        -4.426012         0.136665        -1.000212
 H        -2.460742        -1.263328        -2.947713
 H        -0.832509        -0.472254        -2.455385
 H        -2.780999        -2.094059        -0.649580
 H        -1.184553        -1.399012         1.178655
 H        -0.481341        -2.253852        -0.070815
 H        -1.063929         1.368171         1.063498
 H         0.223411         1.884416        -0.025509
 H        -2.656127         2.190794        -0.452457
 H        -1.620091         2.038677        -1.850295
