19
Iteration:  2788charge 0 multiplicity 1
 O        -4.038380         0.208073        -1.448301
 C        -2.587667         0.122450        -1.454482
 C        -2.212661        -0.984677        -2.318000
 C        -2.062786        -1.299699        -0.905536
 C        -0.776153        -1.307079        -0.303653
 C         0.034200        -0.011974        -0.020728
 O         1.220359        -0.005153         0.112811
 C        -0.819764         1.216633         0.081980
 C        -1.738065         1.277496        -1.286389
 H        -4.271602         0.813221        -0.760701
 H        -3.006260        -1.422076        -2.803752
 H        -1.184455        -1.163574        -2.818762
 H        -2.927072        -1.795405        -0.416100
 H        -1.013327        -1.579692         0.727085
 H         0.026358        -1.913019        -0.713898
 H        -1.492862         1.250074         0.959291
 H        -0.182782         2.118384         0.194236
 H        -2.380991         2.127176        -1.273835
 H        -1.085234         1.436425        -2.048228
