19
Iteration:  3751charge 0 multiplicity 1
 O        -3.881149         0.248788        -0.859949
 C        -2.600046         0.051037        -1.425899
 C        -2.569332        -1.199062        -2.444456
 C        -1.905504        -1.243009        -1.015381
 C        -0.356912        -1.196702        -0.950597
 C        -0.059418        -0.000719         0.000498
 O         0.640233        -0.027533         1.045148
 C        -0.589959         1.328207        -0.494210
 C        -1.655472         1.243092        -1.549102
 H        -3.710044         0.519056         0.029075
 H        -3.617150        -1.650602        -2.542719
 H        -1.867992        -1.240850        -3.239518
 H        -2.294240        -1.676430        -0.061133
 H         0.054732        -2.188210        -0.750045
 H         0.070522        -0.910265        -1.964590
 H        -1.097617         1.856739         0.325873
 H         0.127532         2.040091        -0.828212
 H        -2.245712         2.164378        -1.593297
 H        -1.304761         1.027725        -2.540826
