19
Iteration:  4892
 O        -4.035887         0.159866        -1.071083
 C        -2.638256         0.057627        -1.325060
 C        -2.207584        -0.665536        -2.583483
 C        -2.009055        -1.324309        -1.167781
 C        -0.602736        -1.408930        -0.435553
 C         0.094584        -0.111517        -0.185407
 O         0.803553         0.027708         0.813883
 C        -0.392010         1.222336        -0.829337
 C        -1.942782         1.252861        -0.819100
 H        -4.353933         1.020797        -1.474353
 H        -3.058267        -1.090121        -3.206861
 H        -1.211679        -0.369778        -3.063979
 H        -2.670921        -2.183554        -0.951095
 H        -0.584924        -2.029963         0.513772
 H         0.035114        -1.949561        -1.083345
 H        -0.005368         2.039280        -0.331368
 H        -0.001449         1.167681        -1.897397
 H        -2.285757         1.144693         0.220746
 H        -2.346164         2.253820        -1.225518
