19
Iteration:  1245charge 0 multiplicity 1
 O        -3.946744         0.367114        -1.591729
 C        -2.565571         0.033146        -1.408807
 C        -1.950203        -0.991618        -2.357602
 C        -2.099284        -1.314385        -0.876742
 C        -0.880409        -1.331371         0.097763
 C        -0.072487        -0.070093        -0.051572
 O         1.166760        -0.038874        -0.247227
 C        -0.879450         1.223998         0.065888
 C        -1.798493         1.347449        -1.071536
 H        -4.417716         0.290702        -0.750638
 H        -2.583330        -1.613469        -2.938692
 H        -0.939082        -0.823214        -2.880716
 H        -2.906739        -2.105774        -0.895323
 H        -1.136294        -1.471258         1.196062
 H        -0.108755        -2.156418        -0.028525
 H        -1.310289         1.606660         1.045725
 H         0.029739         1.872780        -0.054589
 H        -2.632746         2.032943        -0.932305
 H        -1.127759         1.631857        -1.923681
