19
Iteration:  4397
 O        -3.965584         0.004741        -1.670763
 C        -2.545935         0.131578        -1.354344
 C        -1.803953        -0.767941        -2.254492
 C        -2.103926        -1.232698        -0.858149
 C        -0.859878        -1.354735         0.071120
 C        -0.056130        -0.061927        -0.032570
 O         1.127410        -0.179695        -0.384522
 C        -0.731101         1.271335        -0.045989
 C        -2.024936         1.457096        -0.918805
 H        -4.441709         0.318603        -0.799279
 H        -2.417626        -1.142841        -3.069844
 H        -0.786437        -0.585285        -2.510197
 H        -2.837203        -1.988597        -0.570008
 H        -1.236296        -1.323678         1.053052
 H        -0.137307        -2.154907        -0.112780
 H        -1.050439         1.458694         0.978925
 H        -0.044386         2.035364        -0.231221
 H        -2.802775         2.023760        -0.254918
 H        -1.885490         2.109881        -1.707507
