19
Iteration:  4456charge 0 multiplicity 1
 O        -4.065672         0.265802        -1.646522
 C        -2.716656        -0.007784        -1.363809
 C        -1.939855        -0.814161        -2.445085
 C        -2.073286        -1.299955        -0.891082
 C        -0.848314        -1.346101         0.074710
 C         0.100110        -0.089943        -0.096267
 O         1.323281        -0.050850        -0.064303
 C        -0.607545         1.278824        -0.213644
 C        -2.148111         1.298531        -0.817295
 H        -4.464808        -0.105197        -0.859398
 H        -2.599525        -1.528739        -3.061424
 H        -1.031470        -0.303834        -2.963892
 H        -2.768358        -2.155278        -0.884033
 H        -1.156381        -1.287163         1.096650
 H        -0.384499        -2.272611         0.065199
 H        -0.613032         1.571453         0.838935
 H         0.096195         2.001547        -0.792675
 H        -2.862027         1.679532        -0.128844
 H        -2.091630         2.006210        -1.721256
