19
Iteration:  1881
 O        -4.001510         0.315136        -1.277531
 C        -2.640488         0.078959        -1.411563
 C        -2.131540        -0.968331        -2.395457
 C        -2.080485        -1.243870        -0.945253
 C        -0.756825        -1.381031        -0.137189
 C         0.027369        -0.083721        -0.008163
 O         1.182800        -0.052839         0.278872
 C        -0.718567         1.293147        -0.231568
 C        -1.869116         1.308073        -1.284461
 H        -4.436547        -0.050705        -2.177504
 H        -2.819759        -1.508100        -3.078762
 H        -1.251973        -0.764143        -3.028112
 H        -2.923238        -1.876557        -0.624498
 H        -0.811313        -2.062927         0.751830
 H        -0.034213        -1.971772        -0.753633
 H        -1.380112         1.285936         0.697184
 H        -0.013430         2.182737        -0.409801
 H        -2.311495         2.212342        -0.934084
 H        -1.444692         1.600448        -2.279158
