19
Iteration:  4628
 O        -4.118996         0.129262        -1.232381
 C        -2.724224         0.059216        -1.330080
 C        -2.085794        -0.695859        -2.402952
 C        -1.996004        -1.208505        -1.061128
 C        -0.659570        -1.356798        -0.433685
 C        -0.027210        -0.091022        -0.031530
 O         1.036220        -0.012193         0.674754
 C        -0.468379         1.143124        -0.744452
 C        -1.956466         1.376372        -0.980144
 H        -4.442998        -0.534351        -0.531081
 H        -2.855942        -1.168385        -3.198311
 H        -1.227910        -0.317402        -2.958358
 H        -2.554139        -2.151108        -0.872884
 H        -0.737904        -2.076723         0.461879
 H         0.080330        -1.974451        -1.107334
 H         0.064881         1.853803        -0.191794
 H         0.032824         1.143913        -1.704082
 H        -2.553352         1.879702        -0.177648
 H        -2.043873         2.036636        -1.761615
