19
Iteration:   800
 O        -3.710458         0.455285        -0.836295
 C        -2.514014        -0.028841        -1.395196
 C        -2.552211        -1.204560        -2.333933
 C        -1.868111        -1.264194        -0.933625
 C        -0.365736        -1.195537        -0.947344
 C        -0.070950         0.097506        -0.114064
 O         0.413460        -0.195733         1.002397
 C        -0.691951         1.359177        -0.495179
 C        -1.663062         1.148492        -1.700845
 H        -3.447727         0.721237         0.197720
 H        -3.501794        -1.649372        -2.534202
 H        -1.751272        -1.056936        -3.003936
 H        -2.330091        -1.770115        -0.059525
 H        -0.099254        -2.076953        -0.341670
 H         0.211223        -1.037743        -1.927955
 H        -0.947598         1.720989         0.517853
 H         0.240153         2.000281        -0.685605
 H        -2.446176         1.990754        -1.907997
 H        -1.048366         1.335236        -2.627927
