19
Iteration:  4849
 O        -4.050721         0.094000        -1.132683
 C        -2.650896         0.063905        -1.368696
 C        -2.298261        -0.733058        -2.560625
 C        -2.028095        -1.271909        -1.041153
 C        -0.501595        -1.340001        -0.660688
 C         0.091945        -0.051408        -0.013670
 O         0.799648        -0.056082         0.926963
 C        -0.359904         1.199001        -0.863493
 C        -1.943651         1.312798        -0.888075
 H        -4.203228         0.997953        -0.668559
 H        -3.251350        -0.980477        -3.091238
 H        -1.359520        -0.469426        -3.216330
 H        -2.725112        -2.035273        -0.659378
 H        -0.341095        -2.154320         0.113831
 H         0.083240        -1.562308        -1.486872
 H         0.153045         1.943609        -0.334172
 H        -0.096704         1.050063        -1.916132
 H        -2.296389         1.560458         0.181124
 H        -2.236746         2.160183        -1.634916
