19
Iteration:  4666charge 0 multiplicity 1
 O        -4.083929         0.142922        -1.164957
 C        -2.668869         0.073646        -1.358948
 C        -2.284000        -0.855516        -2.554891
 C        -1.964516        -1.349562        -1.206823
 C        -0.633061        -1.319024        -0.506976
 C         0.029388        -0.023289        -0.073271
 O         0.950624        -0.004980         0.852677
 C        -0.406436         1.245542        -0.752445
 C        -1.905307         1.294676        -0.884830
 H        -4.256235         0.822570        -0.529491
 H        -3.062708        -1.366495        -2.921569
 H        -1.500422        -0.528630        -3.253493
 H        -2.591376        -2.202295        -1.032328
 H        -0.808377        -1.758842         0.506171
 H         0.183755        -1.857373        -1.008082
 H         0.036770         2.213632        -0.270309
 H         0.025814         1.187211        -1.813133
 H        -2.230631         1.532702         0.148654
 H        -2.243632         2.225044        -1.541335
