19
Iteration:  4715
 O        -4.091103         0.103236        -0.984180
 C        -2.650914         0.080834        -1.255488
 C        -2.081455        -0.711003        -2.520462
 C        -1.951271        -1.259119        -1.125048
 C        -0.590861        -1.434775        -0.620435
 C         0.018434        -0.057768        -0.094601
 O         0.692514         0.076229         0.856602
 C        -0.359356         1.091429        -0.978026
 C        -1.937177         1.348336        -0.813074
 H        -4.474568         0.464977        -1.857596
 H        -2.864538        -1.071288        -3.341480
 H        -1.060991        -0.411885        -2.978984
 H        -2.658834        -2.033016        -0.772942
 H        -0.580551        -2.083097         0.251425
 H         0.066791        -1.912439        -1.347837
 H         0.331420         1.812288        -0.582496
 H        -0.023085         0.948753        -2.012842
 H        -2.087712         1.697479         0.236503
 H        -2.222924         2.298410        -1.418854
