19
Iteration:  2721
 O        -3.985787         0.320939        -1.241925
 C        -2.650668         0.011655        -1.510808
 C        -2.234085        -1.004986        -2.538683
 C        -2.078664        -1.371364        -1.052722
 C        -0.743849        -1.233624        -0.159750
 C         0.025493         0.068047        -0.111504
 O         1.186482        -0.085482         0.331656
 C        -0.739286         1.324250        -0.110349
 C        -1.783910         1.295610        -1.255015
 H        -4.219805        -0.288601        -0.451094
 H        -2.874181        -1.679230        -3.249041
 H        -1.235800        -1.030177        -2.924818
 H        -2.890918        -1.967250        -0.574313
 H        -1.079663        -1.482879         0.848264
 H        -0.038161        -1.985485        -0.512529
 H        -1.010502         1.128336         0.987204
 H        -0.190658         2.242071        -0.107149
 H        -2.553762         1.997940        -1.311413
 H        -1.220511         1.509483        -2.069844
