19
Iteration:  2769charge 0 multiplicity 1
 O        -4.024588         0.157078        -1.397383
 C        -2.651411         0.098944        -1.372953
 C        -2.209714        -0.943124        -2.487903
 C        -2.096673        -1.253824        -0.835820
 C        -0.719161        -1.457006        -0.162766
 C         0.030890        -0.047995        -0.022065
 O         1.188063         0.030768         0.169830
 C        -0.832725         1.223510        -0.091729
 C        -1.663456         1.394414        -1.257654
 H        -4.268848         0.595320        -0.638430
 H        -2.932860        -1.456649        -3.069445
 H        -1.387402        -0.562549        -3.155177
 H        -3.052606        -1.804481        -0.657827
 H        -0.777295        -1.923058         0.887433
 H        -0.093481        -2.041783        -0.870849
 H        -1.581671         1.358607         0.759159
 H        -0.088341         2.097944         0.046448
 H        -2.196528         2.431955        -1.386339
 H        -1.091511         1.394404        -2.296020
