19
Iteration:  3539
 O        -3.940576         0.324736        -1.159433
 C        -2.644184         0.031923        -1.405776
 C        -2.348041        -1.007626        -2.472620
 C        -2.027493        -1.297231        -0.985372
 C        -0.589877        -1.333820        -0.462722
 C        -0.035256        -0.028364         0.020306
 O         1.123055         0.136711         0.454690
 C        -0.842701         1.118059        -0.112491
 C        -1.721486         1.227681        -1.451484
 H        -4.054535         1.038349        -0.444291
 H        -3.117749        -1.598846        -2.971782
 H        -1.352587        -0.929669        -2.949298
 H        -2.644039        -1.989723        -0.382480
 H        -0.407263        -2.086461         0.340630
 H         0.032732        -1.711258        -1.316188
 H        -1.707991         1.207505         0.582616
 H        -0.190416         2.057571        -0.050314
 H        -2.362460         2.197004        -1.540644
 H        -1.172017         1.188285        -2.330442
