19
Iteration:  3471charge 0 multiplicity 1
 O        -4.001858         0.410784        -1.257472
 C        -2.601247         0.016935        -1.471761
 C        -2.313904        -1.036570        -2.456913
 C        -2.077991        -1.329856        -0.947070
 C        -0.607558        -1.387792        -0.395408
 C         0.036105        -0.038167         0.000482
 O         1.191821         0.114153         0.349665
 C        -0.923794         1.240808        -0.054488
 C        -1.701384         1.276203        -1.362219
 H        -4.254417        -0.048890        -0.409416
 H        -3.074515        -1.718311        -2.837878
 H        -1.440860        -1.109928        -3.061163
 H        -2.833316        -1.990993        -0.556669
 H        -0.442678        -2.023646         0.548506
 H         0.113845        -1.934501        -1.037292
 H        -1.690454         1.226406         0.780518
 H        -0.148887         2.010588         0.060376
 H        -2.360372         2.194668        -1.241142
 H        -1.193043         1.390904        -2.262806
