19
Iteration:  3988charge 0 multiplicity 1
 O        -3.909303         0.319525        -0.979188
 C        -2.629315        -0.049723        -1.461451
 C        -2.628002        -1.125868        -2.512269
 C        -1.966737        -1.327964        -1.097545
 C        -0.359977        -1.212774        -0.717041
 C         0.014117         0.012623         0.019056
 O         0.948049         0.005814         0.878329
 C        -0.761524         1.300354        -0.328799
 C        -1.746849         1.248083        -1.518284
 H        -3.886377         0.884820        -0.171206
 H        -3.496983        -1.733788        -2.573249
 H        -1.803167        -1.014283        -3.326284
 H        -2.392091        -1.871019        -0.220163
 H        -0.159850        -2.010234        -0.037936
 H         0.316973        -1.338460        -1.613121
 H        -1.365372         1.598702         0.571149
 H         0.044688         2.159515        -0.421573
 H        -2.386628         2.182312        -1.613359
 H        -1.124049         1.077635        -2.350686
