19
Iteration:  2849charge 0 multiplicity 1
 O        -3.999219         0.267185        -1.525427
 C        -2.561065         0.051123        -1.413912
 C        -2.181030        -0.953116        -2.359712
 C        -2.100949        -1.187532        -0.780618
 C        -0.740723        -1.394609        -0.132415
 C        -0.046684        -0.061949        -0.119581
 O         1.148110         0.120888        -0.055726
 C        -0.892891         1.138437         0.171417
 C        -1.617689         1.305546        -1.238946
 H        -4.398767         0.436831        -0.718711
 H        -2.895619        -1.477597        -2.993076
 H        -1.206344        -0.874765        -2.835767
 H        -2.822772        -1.920824        -0.471017
 H        -0.860070        -1.846218         0.881484
 H        -0.154660        -2.234213        -0.581177
 H        -1.600104         0.893271         0.983478
 H        -0.181947         1.908848         0.297111
 H        -2.263610         2.198845        -1.415450
 H        -0.869659         1.221672        -2.170592
