19
Iteration:  4957charge 0 multiplicity 1
 O        -4.121333         0.086104        -1.098942
 C        -2.667932         0.073436        -1.387076
 C        -2.112494        -0.637823        -2.589454
 C        -1.944343        -1.191273        -1.170698
 C        -0.757723        -1.358507        -0.325777
 C         0.076303        -0.078055        -0.088906
 O         1.095546        -0.093066         0.664379
 C        -0.474605         1.187051        -0.679372
 C        -2.033473         1.317913        -0.840312
 H        -4.441782         0.361273        -2.031309
 H        -2.934545        -1.158265        -3.255315
 H        -1.203643        -0.285234        -3.117586
 H        -2.688430        -2.020153        -1.016259
 H        -1.075144        -1.682460         0.743138
 H        -0.182559        -2.269997        -0.767860
 H         0.081791         1.986397        -0.275966
 H         0.062121         1.107346        -1.753701
 H        -2.353078         1.477088         0.144148
 H        -2.447704         2.117081        -1.500681
