19
Iteration:  1931
 O        -3.999889         0.253554        -1.404485
 C        -2.614449         0.028681        -1.433210
 C        -2.238505        -1.039236        -2.377271
 C        -2.175044        -1.274275        -0.856631
 C        -0.805153        -1.216391        -0.175268
 C         0.075476         0.013429        -0.011260
 O         1.286260        -0.033896         0.112563
 C        -0.829666         1.244723         0.031636
 C        -1.685620         1.281402        -1.305738
 H        -4.174377         0.745400        -2.219378
 H        -3.001599        -1.625211        -2.745262
 H        -1.341549        -1.027811        -3.084122
 H        -2.992901        -1.915549        -0.552287
 H        -0.818910        -1.740531         0.779932
 H        -0.165517        -1.897948        -0.737153
 H        -1.576673         0.861874         0.708680
 H        -0.454855         2.178801         0.353205
 H        -2.480910         2.185303        -1.100831
 H        -0.856442         1.541396        -1.991189
