19
Iteration:  2781
 O        -4.036252         0.159543        -1.431230
 C        -2.580416         0.078854        -1.415613
 C        -2.209974        -0.957022        -2.357609
 C        -2.125964        -1.237760        -0.904011
 C        -0.754566        -1.377622        -0.250976
 C         0.001247        -0.060889        -0.019481
 O         1.228673         0.026472         0.137659
 C        -0.823251         1.277845         0.024997
 C        -1.690181         1.339499        -1.313987
 H        -4.410903         0.799007        -0.729694
 H        -3.130332        -1.338394        -2.867437
 H        -1.293243        -0.838020        -2.881756
 H        -2.764936        -2.006634        -0.488822
 H        -0.875216        -1.841506         0.790014
 H        -0.128702        -2.148073        -0.769508
 H        -1.453757         1.135236         0.938479
 H        -0.089156         2.123822         0.188120
 H        -2.408651         2.248516        -1.246169
 H        -0.888265         1.413034        -2.197342
