19
Iteration:  1193
 O        -4.033818         0.199222        -1.541996
 C        -2.580837         0.113940        -1.564937
 C        -2.172940        -0.985872        -2.314376
 C        -2.060157        -1.129234        -0.816750
 C        -0.713623        -1.385407        -0.095984
 C         0.008481        -0.044081        -0.006722
 O         1.230585        -0.084181         0.000932
 C        -0.890403         1.182865         0.026145
 C        -1.772248         1.374391        -1.227866
 H        -4.353605         0.644087        -0.843097
 H        -2.832284        -1.472859        -2.949612
 H        -1.218488        -0.870078        -2.898211
 H        -2.946196        -1.517343        -0.274265
 H        -1.066563        -1.426001         0.937516
 H        -0.103068        -2.261097        -0.385241
 H        -1.476547         0.960506         0.863606
 H        -0.121543         1.925393         0.408845
 H        -2.416146         2.272605        -1.075980
 H        -0.994124         1.659327        -1.933581
