19
Iteration:  2877charge 0 multiplicity 1
 O        -3.988302         0.257422        -1.393187
 C        -2.536642         0.044537        -1.491016
 C        -2.076284        -1.045124        -2.443711
 C        -2.098197        -1.260630        -0.902964
 C        -0.777040        -1.268398        -0.075426
 C        -0.041374         0.002647         0.054546
 O         1.195223        -0.064072        -0.168217
 C        -0.979451         1.225532         0.149616
 C        -1.677376         1.344265        -1.233010
 H        -4.184036         0.680221        -0.585212
 H        -2.751076        -1.471527        -3.349644
 H        -1.038550        -0.873373        -2.578560
 H        -2.839557        -1.949304        -0.478095
 H        -1.217189        -1.728264         0.824168
 H        -0.107274        -1.991458        -0.546581
 H        -1.600303         1.140510         1.071816
 H        -0.398459         2.251527         0.302754
 H        -2.439211         2.154545        -1.172991
 H        -1.058842         1.456895        -2.012196
