19
Iteration:  4030
 O        -3.895728         0.305628        -1.043235
 C        -2.613666         0.038365        -1.456869
 C        -2.540768        -1.131193        -2.385106
 C        -1.985563        -1.254045        -0.955683
 C        -0.489779        -1.269418        -0.737973
 C        -0.040862        -0.002281         0.005556
 O         0.975714         0.075975         0.646399
 C        -0.907264         1.220677        -0.140857
 C        -1.569623         1.249848        -1.563815
 H        -3.974409         0.500083        -0.016025
 H        -3.212230        -1.678874        -2.996108
 H        -1.507718        -1.217967        -2.956200
 H        -2.683929        -1.845109        -0.336547
 H        -0.107760        -2.042588        -0.097112
 H         0.144279        -1.097682        -1.677956
 H        -1.586201         1.230161         0.707298
 H        -0.221359         2.074948         0.004627
 H        -2.065413         2.105674        -1.856807
 H        -0.867684         0.927405        -2.380440
