19
Iteration:  1569charge 0 multiplicity 1
 O        -4.077500         0.133974        -1.613321
 C        -2.638091         0.118197        -1.377394
 C        -2.031809        -0.926508        -2.424135
 C        -2.054645        -1.203355        -0.919198
 C        -0.873334        -1.228919        -0.052545
 C         0.022436        -0.110064        -0.044372
 O         1.226586        -0.174980         0.005777
 C        -0.650294         1.291786        -0.013245
 C        -1.908069         1.362944        -1.058061
 H        -4.365560         0.568264        -0.701934
 H        -2.629922        -1.495887        -3.051117
 H        -1.030515        -0.754765        -2.939768
 H        -2.848724        -1.830793        -0.560948
 H        -1.178845        -1.087626         1.056362
 H        -0.151818        -2.070385        -0.099623
 H        -0.926613         1.084043         0.994267
 H         0.038261         2.036173        -0.340462
 H        -2.768544         2.070401        -0.791665
 H        -1.480457         1.757246        -1.988996
