19
Iteration:   290charge 0 multiplicity 1
 O        -3.994891         0.114439        -1.692700
 C        -2.564146         0.174754        -1.442063
 C        -1.998876        -1.098150        -2.182906
 C        -2.231404        -1.086560        -0.681092
 C        -0.897455        -1.292853         0.021444
 C         0.030239        -0.071981        -0.106346
 O         1.256111        -0.103860        -0.208127
 C        -0.782604         1.232850        -0.027981
 C        -1.809621         1.480472        -1.131953
 H        -4.426078        -0.030224        -0.854797
 H        -2.670596        -1.535781        -2.922324
 H        -0.956003        -1.239313        -2.495693
 H        -3.036443        -1.706992        -0.368298
 H        -1.134406        -1.528621         1.073541
 H        -0.311415        -2.181755        -0.332424
 H        -1.334127         1.090405         0.874934
 H        -0.060230         2.058676         0.138458
 H        -2.539106         2.262512        -0.856162
 H        -1.223609         1.858435        -2.054015
