19
Iteration:    16
 O        -4.017049         0.161140        -1.548645
 C        -2.502111         0.051047        -1.431394
 C        -2.112907        -0.996733        -2.453929
 C        -2.157139        -1.293052        -0.881941
 C        -0.851073        -1.266473         0.107132
 C        -0.022720         0.010564        -0.022926
 O         1.151008        -0.078790        -0.108216
 C        -0.705834         1.363728         0.003020
 C        -1.729691         1.305651        -1.129526
 H        -4.361049        -0.025300        -0.635646
 H        -3.025611        -1.273417        -3.039722
 H        -1.152880        -1.360700        -3.017265
 H        -3.056304        -1.865761        -0.508760
 H        -1.312473        -1.050739         1.074811
 H        -0.125015        -2.130194         0.199650
 H        -1.058501         1.737267         0.975999
 H         0.039636         2.111743        -0.303562
 H        -2.460637         2.131972        -1.194224
 H        -1.213363         1.585072        -2.138307
