19
Iteration:  2750charge 0 multiplicity 1
 O        -4.053532         0.268589        -1.289915
 C        -2.643024         0.081530        -1.476555
 C        -2.150177        -0.923732        -2.418366
 C        -2.036424        -1.227995        -0.984713
 C        -0.699226        -1.355557        -0.173694
 C         0.016281        -0.085041         0.025713
 O         1.178774        -0.007006         0.233986
 C        -0.819344         1.220971        -0.142135
 C        -1.778945         1.292652        -1.349586
 H        -4.173853         0.271600        -0.365986
 H        -2.964042        -1.467904        -3.027574
 H        -1.239570        -0.722390        -2.913445
 H        -2.672610        -2.013832        -0.613896
 H        -1.001721        -1.785566         0.807938
 H        -0.074452        -2.176433        -0.590026
 H        -1.293690         1.227835         0.826342
 H        -0.048451         1.993042        -0.185456
 H        -2.563308         2.123390        -1.280640
 H        -1.206000         1.613606        -2.325373
