19
Iteration:  4304charge 0 multiplicity 1
 O        -3.924213         0.140457        -1.714644
 C        -2.552319         0.091177        -1.312465
 C        -1.822048        -1.010734        -2.217535
 C        -2.126106        -1.233096        -0.723029
 C        -0.876065        -1.413145        -0.025932
 C        -0.019094        -0.064580        -0.049993
 O         1.057608         0.029522        -0.512428
 C        -0.817795         1.219745         0.208781
 C        -1.859031         1.472380        -1.005557
 H        -4.518937         0.303977        -0.995574
 H        -2.431413        -1.549051        -2.919783
 H        -0.826415        -0.678780        -2.658671
 H        -2.901313        -1.966577        -0.666565
 H        -1.316975        -1.521041         1.074941
 H        -0.267555        -2.281897        -0.384067
 H        -1.430033         1.245130         1.124802
 H        -0.038548         2.058855         0.351955
 H        -2.590746         2.145031        -0.654474
 H        -1.502756         2.059666        -1.957053
