19
Iteration:  3208charge 0 multiplicity 1
 O        -3.941923         0.218061        -1.681946
 C        -2.570309         0.020971        -1.363443
 C        -1.884427        -0.875828        -2.340855
 C        -2.141181        -1.356383        -0.841071
 C        -1.001476        -1.182308         0.178422
 C        -0.000208        -0.014845        -0.069572
 O         1.207304        -0.054433        -0.434767
 C        -0.756957         1.182484         0.114579
 C        -1.873428         1.306105        -0.972633
 H        -4.483590        -0.054812        -0.921860
 H        -2.459155        -1.242996        -3.214591
 H        -0.821256        -0.853814        -2.720814
 H        -3.009989        -2.067906        -0.740442
 H        -1.462642        -1.094061         1.153375
 H        -0.307015        -2.005414         0.263327
 H        -1.140033         1.209188         1.117754
 H        -0.122111         1.996692        -0.077368
 H        -2.723619         1.970246        -0.424573
 H        -1.537074         1.839162        -1.859128
