19
Iteration:  4515
 O        -4.118768         0.001515        -1.529463
 C        -2.670094         0.091253        -1.336036
 C        -1.879897        -0.684477        -2.338873
 C        -2.016652        -1.275935        -1.034096
 C        -0.838299        -1.330271        -0.090900
 C         0.049218        -0.068972        -0.141825
 O         1.181189        -0.166097         0.259435
 C        -0.525677         1.292008        -0.655633
 C        -2.129752         1.386483        -0.675730
 H        -4.631361         0.447939        -0.844921
 H        -2.490799        -1.044911        -3.057059
 H        -0.985990        -0.358318        -2.802434
 H        -2.918337        -1.864984        -0.886238
 H        -1.261160        -1.414212         0.952587
 H        -0.143762        -2.213364        -0.303096
 H        -0.049967         2.065397         0.076884
 H        -0.101832         1.518910        -1.601051
 H        -2.391583         1.446650         0.346308
 H        -2.453841         2.391949        -1.084902
