19
Iteration:  3156charge 0 multiplicity 1
 O        -3.897923         0.051522        -1.757801
 C        -2.630172         0.129984        -1.322482
 C        -1.824165        -0.871381        -2.181476
 C        -2.123362        -1.169109        -0.754772
 C        -0.875438        -1.316776         0.037023
 C        -0.006280        -0.077515        -0.086315
 O         1.150024        -0.216663        -0.369017
 C        -0.736848         1.312794        -0.008138
 C        -2.024850         1.429959        -0.935950
 H        -4.473284         0.690838        -1.197174
 H        -2.405592        -1.295108        -2.904440
 H        -0.820852        -0.500442        -2.492681
 H        -2.941274        -1.919333        -0.789117
 H        -1.179027        -1.428793         1.090838
 H        -0.259190        -2.214028        -0.190297
 H        -1.174135         1.267076         0.992264
 H         0.002384         2.106980        -0.074336
 H        -2.818692         1.937810        -0.402938
 H        -1.867901         2.006871        -1.802029
