19
Iteration:  3724
 O        -3.847525         0.379432        -0.871841
 C        -2.601003        -0.043260        -1.412455
 C        -2.585518        -1.173304        -2.454267
 C        -1.820052        -1.316282        -1.077284
 C        -0.352236        -1.217252        -0.796741
 C        -0.004641         0.003036        -0.014818
 O         0.691088        -0.040815         0.952980
 C        -0.714714         1.286445        -0.390271
 C        -1.734174         1.277627        -1.627679
 H        -3.738586         0.856926        -0.073705
 H        -3.419226        -1.818123        -2.385968
 H        -2.054762        -0.951801        -3.418287
 H        -2.262896        -1.943094        -0.308870
 H         0.057969        -2.166308        -0.348889
 H         0.071048        -1.070635        -1.797303
 H        -1.206283         1.719202         0.499611
 H         0.018571         2.139898        -0.585867
 H        -2.513076         2.172401        -1.705231
 H        -1.276467         1.116280        -2.647820
