19
Iteration:  4575
 O        -4.108597         0.230800        -1.349573
 C        -2.704847         0.002462        -1.396419
 C        -2.045819        -0.739833        -2.551884
 C        -2.032129        -1.290649        -1.096209
 C        -0.778600        -1.286574        -0.165982
 C         0.089714        -0.004439        -0.154859
 O         1.084069        -0.025646         0.521810
 C        -0.476084         1.226776        -0.710446
 C        -1.957419         1.223436        -0.691421
 H        -4.553774        -0.518815        -0.809608
 H        -2.800053        -1.458047        -3.200102
 H        -1.126316        -0.378172        -3.072705
 H        -2.776440        -2.109844        -1.002275
 H        -1.008544        -1.365179         1.005715
 H        -0.139650        -2.206648        -0.362150
 H         0.097351         2.013536        -0.329447
 H        -0.199979         1.140147        -1.811903
 H        -2.469039         1.171613         0.352699
 H        -2.334745         2.141029        -1.106311
