19
Iteration:  4354
 O        -4.009813         0.239171        -1.735909
 C        -2.641774         0.051214        -1.386902
 C        -1.797508        -0.883135        -2.242022
 C        -1.982097        -1.397591        -0.862747
 C        -0.865280        -1.217160         0.189144
 C        -0.044964        -0.035023        -0.078503
 O         1.184247        -0.124975        -0.566421
 C        -0.804882         1.246151         0.197662
 C        -1.975554         1.333282        -0.933827
 H        -4.371254         0.521205        -0.849662
 H        -2.392355        -1.328271        -3.108835
 H        -0.731134        -0.700413        -2.495845
 H        -2.808448        -2.155665        -0.686992
 H        -1.320438        -1.054206         1.109092
 H        -0.293847        -2.129343         0.204940
 H        -1.340632         1.097922         1.155189
 H        -0.160043         2.073148         0.329177
 H        -2.895159         1.970092        -0.507791
 H        -1.690926         1.977453        -1.740866
