19
Iteration:   966charge 0 multiplicity 1
 O        -3.903738         0.435714        -1.072832
 C        -2.582262        -0.027579        -1.406991
 C        -2.541960        -1.160959        -2.436924
 C        -2.020012        -1.293939        -0.939562
 C        -0.493155        -1.284655        -0.807686
 C        -0.024172         0.034110         0.023040
 O         0.882440         0.025756         0.807542
 C        -0.794846         1.307914        -0.279234
 C        -1.555511         1.141503        -1.496947
 H        -3.780422         0.938013        -0.308626
 H        -3.542643        -1.679949        -2.605428
 H        -1.688446        -1.086498        -3.045719
 H        -2.587076        -1.995910        -0.298475
 H        -0.172903        -2.223721        -0.339804
 H         0.109157        -1.154637        -1.762568
 H        -1.453745         1.552789         0.572228
 H         0.109258         1.977784        -0.255426
 H        -2.189035         1.994596        -1.946515
 H        -0.894731         0.981147        -2.397511
