19
Iteration:  3529
 O        -4.012750         0.309674        -1.170579
 C        -2.615850         0.037966        -1.449934
 C        -2.337868        -1.059509        -2.466843
 C        -1.989816        -1.267884        -0.995256
 C        -0.617741        -1.334956        -0.425119
 C        -0.004194        -0.076542         0.096667
 O         1.139518         0.098074         0.395634
 C        -0.844027         1.230957        -0.132125
 C        -1.741179         1.244689        -1.444996
 H        -4.029276         0.864730        -0.358969
 H        -3.044176        -1.847922        -2.833447
 H        -1.497399        -0.824262        -3.183860
 H        -2.890942        -1.700869        -0.504969
 H        -0.479742        -2.196134         0.223382
 H         0.137757        -1.374377        -1.250233
 H        -1.557852         1.051131         0.811401
 H        -0.214397         2.097274         0.314001
 H        -2.233410         2.275894        -1.614786
 H        -0.978026         1.115893        -2.176596
