19
Iteration:  1477
 O        -4.038688         0.118314        -1.707978
 C        -2.612506         0.091378        -1.383200
 C        -1.982540        -0.817120        -2.295118
 C        -2.145854        -1.267264        -0.908369
 C        -0.842081        -1.245822         0.058961
 C         0.055845        -0.078504        -0.010413
 O         1.299684        -0.241792        -0.093776
 C        -0.724629         1.274180        -0.064399
 C        -1.976441         1.466930        -1.050338
 H        -4.490034         0.198304        -0.709039
 H        -2.557426        -1.215856        -3.123254
 H        -0.971587        -0.807041        -2.727367
 H        -2.963847        -1.898547        -0.559953
 H        -1.403694        -1.303225         1.018204
 H        -0.392903        -2.185004        -0.238722
 H        -1.001814         1.487680         0.977129
 H         0.111851         1.939738        -0.444332
 H        -2.697245         1.977230        -0.382813
 H        -1.627546         1.966184        -1.964049
