19
Iteration:  2922
 O        -4.038893         0.217685        -1.515256
 C        -2.621157         0.020305        -1.384441
 C        -2.047440        -0.848722        -2.418004
 C        -2.130067        -1.327307        -0.922363
 C        -0.823933        -1.361807         0.004996
 C         0.039910        -0.070878        -0.019026
 O         1.220352         0.018903        -0.111575
 C        -0.760514         1.201655         0.059999
 C        -1.794213         1.352612        -1.202296
 H        -4.509114         0.254996        -0.693320
 H        -2.747160        -1.282353        -3.244088
 H        -1.002182        -0.664582        -2.677911
 H        -3.037238        -1.836050        -0.636791
 H        -1.084678        -1.287649         1.094567
 H        -0.138745        -2.210127        -0.050569
 H        -1.451322         1.199060         0.949682
 H         0.003595         2.081248         0.125541
 H        -2.547737         2.151704        -0.983209
 H        -1.299029         1.494377        -2.094772
