19
Iteration:  4975charge 0 multiplicity 1
 O        -4.089143         0.128990        -1.194844
 C        -2.726710         0.061778        -1.403009
 C        -2.144840        -0.737169        -2.545843
 C        -2.060674        -1.350158        -1.187052
 C        -0.696548        -1.359399        -0.295523
 C         0.039875        -0.096291        -0.115501
 O         1.127841        -0.057142         0.583685
 C        -0.462654         1.267462        -0.610727
 C        -1.965537         1.294043        -0.787869
 H        -4.390543         0.964651        -1.736022
 H        -2.756365        -1.106464        -3.312993
 H        -1.289557        -0.344742        -3.147882
 H        -2.707963        -2.207776        -1.078967
 H        -1.094338        -1.542516         0.651720
 H         0.097875        -2.107725        -0.548972
 H        -0.221920         2.081807         0.186399
 H         0.051998         1.638301        -1.465773
 H        -2.558619         1.557099         0.150130
 H        -2.111920         2.219674        -1.347285
