19
Iteration:   951charge 0 multiplicity 1
 O        -3.900606         0.364686        -0.994325
 C        -2.662349         0.054396        -1.474320
 C        -2.555404        -1.090054        -2.375048
 C        -1.967563        -1.268732        -1.048558
 C        -0.471534        -1.216451        -0.789098
 C        -0.050249        -0.002098         0.069977
 O         0.896935        -0.018828         0.894080
 C        -0.752072         1.335816        -0.293794
 C        -1.574265         1.050173        -1.632568
 H        -3.952328         0.616152        -0.046622
 H        -3.404320        -1.632696        -2.629975
 H        -2.015719        -1.049405        -3.324633
 H        -2.508090        -1.857733        -0.334832
 H        -0.150654        -2.041999        -0.151989
 H        -0.003042        -1.246743        -1.782146
 H        -1.310052         1.799432         0.552800
 H        -0.111953         2.165616        -0.619907
 H        -1.845082         2.003955        -2.030368
 H        -0.812757         0.634617        -2.267448
