19
Iteration:  3091
 O        -4.025287         0.285146        -1.617691
 C        -2.623283         0.077713        -1.450633
 C        -1.858179        -0.891948        -2.332584
 C        -2.043402        -1.304408        -0.870413
 C        -0.771514        -1.289234         0.110111
 C        -0.050454        -0.022403        -0.031941
 O         1.172737        -0.246196        -0.217280
 C        -0.720884         1.321598        -0.093334
 C        -2.071340         1.341159        -0.956366
 H        -4.443387        -0.119041        -0.900302
 H        -2.427152        -1.429153        -3.111969
 H        -0.963014        -0.509971        -2.743342
 H        -2.591853        -2.323404        -0.780520
 H        -1.249866        -1.203501         1.152339
 H         0.003965        -2.120484         0.150013
 H        -1.000174         1.571417         1.022152
 H        -0.117691         2.165023        -0.429817
 H        -2.732641         1.932848        -0.393247
 H        -1.732409         1.897021        -1.922500
