19
Iteration:  4518
 O        -4.124212         0.010997        -1.538596
 C        -2.682585         0.103249        -1.334858
 C        -1.909248        -0.684655        -2.364692
 C        -1.998124        -1.284152        -1.031152
 C        -0.824618        -1.324222        -0.084507
 C         0.071088        -0.066909        -0.126020
 O         1.161304        -0.153928         0.266654
 C        -0.532216         1.265476        -0.679862
 C        -2.122840         1.394745        -0.651147
 H        -4.564760         0.443530        -0.821161
 H        -2.562867        -1.079592        -3.138590
 H        -0.896600        -0.259143        -2.711553
 H        -2.863181        -1.932285        -0.925901
 H        -1.228912        -1.336117         1.002177
 H        -0.128283        -2.234902        -0.306869
 H        -0.034548         1.935760         0.014769
 H        -0.029495         1.464487        -1.632606
 H        -2.403789         1.427095         0.468912
 H        -2.464397         2.280682        -1.132899
