19
Iteration:  1548
 O        -4.017619         0.149501        -1.625351
 C        -2.622064         0.083317        -1.441643
 C        -2.086458        -0.912292        -2.428554
 C        -2.096084        -1.284746        -0.871622
 C        -0.943605        -1.311620        -0.002028
 C         0.089537        -0.068303        -0.026914
 O         1.292991        -0.177396        -0.007306
 C        -0.692511         1.365966        -0.042814
 C        -1.902273         1.392590        -1.022303
 H        -4.546518         0.711446        -0.906232
 H        -2.732869        -1.443085        -3.057455
 H        -1.120317        -0.801090        -3.033760
 H        -2.808639        -2.076198        -0.729276
 H        -1.134295        -1.413371         1.103778
 H        -0.184075        -2.053852        -0.323209
 H        -1.142518         1.631134         0.995762
 H         0.048583         2.048216        -0.415326
 H        -2.695363         1.907685        -0.420338
 H        -1.605533         2.024427        -1.871638
