19
Iteration:  4106charge 0 multiplicity 1
 O        -3.954091         0.258202        -1.142773
 C        -2.655786         0.025734        -1.462441
 C        -2.354948        -1.050981        -2.410945
 C        -2.044043        -1.279857        -0.951775
 C        -0.592680        -1.329911        -0.497079
 C         0.008705        -0.031749        -0.004212
 O         1.134797         0.082911         0.463092
 C        -0.868739         1.200634        -0.148672
 C        -1.690348         1.330751        -1.458274
 H        -4.029528         0.311756        -0.237668
 H        -3.048666        -1.446408        -3.107030
 H        -1.425687        -0.585583        -2.985888
 H        -2.864087        -1.725817        -0.378449
 H        -0.705506        -1.989489         0.377880
 H         0.094006        -1.759837        -1.269369
 H        -1.550004         1.187885         0.685977
 H        -0.184284         2.019883         0.065897
 H        -2.273713         2.193461        -1.375091
 H        -1.094151         1.241965        -2.482725
