19
Iteration:   836
 O        -3.893112         0.297130        -0.854947
 C        -2.644921         0.052628        -1.430984
 C        -2.702245        -1.189375        -2.306289
 C        -1.803649        -1.205266        -1.086565
 C        -0.358515        -1.121874        -0.978081
 C        -0.055913        -0.014097         0.012754
 O         0.497600        -0.080320         1.141406
 C        -0.512731         1.291640        -0.457925
 C        -1.527284         1.188410        -1.755912
 H        -3.896356         0.793625         0.090610
 H        -3.675547        -1.663323        -2.236900
 H        -2.363940        -1.333244        -3.372451
 H        -2.051446        -1.800836        -0.235831
 H         0.176638        -2.011787        -0.674257
 H         0.181560        -0.898700        -1.947111
 H        -0.813221         1.854182         0.435795
 H         0.379557         1.763615        -0.877282
 H        -2.007240         2.200568        -1.842070
 H        -0.926390         0.879024        -2.637369
