19
Iteration:  1784
 O        -4.010423         0.294732        -1.292167
 C        -2.671513         0.040103        -1.429628
 C        -2.026468        -1.039320        -2.355842
 C        -2.164449        -1.301208        -0.868475
 C        -0.792501        -1.350002        -0.197038
 C        -0.006220         0.000036        -0.118909
 O         1.144297        -0.021020         0.187327
 C        -0.822513         1.273033        -0.092346
 C        -1.683085         1.330815        -1.307538
 H        -4.282316         1.235150        -1.512381
 H        -2.545791        -1.699720        -2.948269
 H        -1.077414        -0.941047        -2.941186
 H        -2.850063        -2.130039        -0.703775
 H        -0.716325        -1.623710         0.860443
 H        -0.166532        -2.126222        -0.669064
 H        -1.446259         1.071797         0.691963
 H        -0.021716         2.002851         0.128545
 H        -2.366250         2.211998        -1.321542
 H        -1.236064         1.458053        -2.258664
