19
Iteration:  1547
 O        -4.018558         0.154277        -1.625572
 C        -2.621216         0.088639        -1.432156
 C        -2.083893        -0.909795        -2.434593
 C        -2.101507        -1.292633        -0.871398
 C        -0.945525        -1.319778         0.000515
 C         0.092376        -0.078153        -0.022006
 O         1.296217        -0.172615        -0.008340
 C        -0.689338         1.377152        -0.041152
 C        -1.906726         1.394871        -1.029393
 H        -4.491796         0.685657        -0.932261
 H        -2.721299        -1.454187        -3.061944
 H        -1.124484        -0.809879        -3.015111
 H        -2.832996        -2.083087        -0.726200
 H        -1.114950        -1.423847         1.120446
 H        -0.183120        -2.050840        -0.324569
 H        -1.125151         1.585771         0.980207
 H         0.042097         2.062189        -0.436921
 H        -2.744828         1.895454        -0.429843
 H        -1.633063         2.031300        -1.879413
