19
Iteration:  3514charge 0 multiplicity 1
 O        -4.031685         0.268693        -1.199256
 C        -2.658158         0.069165        -1.543711
 C        -2.349072        -1.113103        -2.469429
 C        -2.033865        -1.226101        -0.957913
 C        -0.590530        -1.327530        -0.444616
 C         0.008547         0.045684         0.064231
 O         1.211228         0.001406         0.386773
 C        -0.943737         1.272170        -0.001540
 C        -1.615692         1.255999        -1.408517
 H        -4.065496         0.546573        -0.191033
 H        -3.275843        -1.527523        -2.747710
 H        -1.542820        -0.981024        -3.207083
 H        -2.620189        -1.979562        -0.487191
 H        -0.497824        -2.136726         0.387154
 H        -0.001507        -1.707828        -1.300224
 H        -1.736491         1.428217         0.731869
 H        -0.373860         2.182950        -0.108865
 H        -2.259322         2.151812        -1.516398
 H        -0.872522         1.267576        -2.207376
