19
Iteration:   921charge 0 multiplicity 1
 O        -3.804760         0.325270        -0.856608
 C        -2.632645         0.059540        -1.491923
 C        -2.638452        -1.115321        -2.453344
 C        -1.932228        -1.252718        -1.096284
 C        -0.460781        -1.278573        -0.729383
 C        -0.029431        -0.007210         0.089390
 O         0.768606        -0.024623         1.009423
 C        -0.651490         1.331731        -0.469372
 C        -1.586110         1.188449        -1.732898
 H        -3.839416         0.143545         0.039123
 H        -3.560002        -1.699503        -2.514249
 H        -2.008422        -1.028579        -3.308366
 H        -2.479686        -1.891519        -0.425877
 H        -0.276891        -2.037339         0.000859
 H         0.136933        -1.404371        -1.667469
 H        -1.429619         1.534159         0.298682
 H        -0.078136         2.299698        -0.566664
 H        -2.142046         2.197005        -1.710405
 H        -1.140093         1.246847        -2.741348
