19
Iteration:  3163charge 0 multiplicity 1
 O        -3.936426         0.109395        -1.758496
 C        -2.578803         0.078489        -1.379960
 C        -1.842523        -0.821145        -2.150517
 C        -2.083720        -1.224720        -0.758749
 C        -0.836352        -1.289073         0.072111
 C        -0.018806        -0.091000        -0.025295
 O         1.144519        -0.229855        -0.395715
 C        -0.791722         1.306369        -0.051182
 C        -2.018266         1.442908        -0.934489
 H        -4.412564         0.631274        -1.116529
 H        -2.324496        -1.369482        -3.100821
 H        -0.863524        -0.603945        -2.453309
 H        -2.772877        -2.072072        -0.531007
 H        -1.121038        -1.511884         1.097120
 H        -0.429921        -2.205880        -0.329640
 H        -1.276300         1.351797         0.923736
 H        -0.042414         2.074509        -0.056632
 H        -2.855453         1.962957        -0.266739
 H        -1.747215         2.115848        -1.787591
