19
Iteration:  4418
 O        -4.004083         0.081669        -1.648344
 C        -2.594959         0.041228        -1.394759
 C        -1.832899        -0.859809        -2.312058
 C        -2.114239        -1.236585        -0.860919
 C        -0.903845        -1.291335         0.024050
 C         0.009133        -0.062397        -0.212295
 O         1.224364        -0.201598        -0.221974
 C        -0.675128         1.373330        -0.024228
 C        -2.074413         1.471375        -0.818433
 H        -4.634879        -0.113704        -0.981622
 H        -2.378798        -1.472179        -3.019049
 H        -0.938688        -0.556400        -2.692807
 H        -2.825185        -2.066378        -0.693740
 H        -1.173982        -1.314499         1.107346
 H        -0.196438        -2.156994        -0.280769
 H        -0.848272         1.485243         1.056204
 H         0.036441         2.092101        -0.247856
 H        -2.909314         2.057613        -0.253026
 H        -1.977606         2.005006        -1.706810
