19
Iteration:  1811charge 0 multiplicity 1
 O        -3.958397         0.192965        -1.259375
 C        -2.590164         0.098875        -1.461067
 C        -2.154513        -0.975238        -2.403407
 C        -2.095438        -1.241030        -0.935686
 C        -0.764212        -1.393139        -0.168152
 C        -0.056984        -0.031043         0.007127
 O         1.187090        -0.070627         0.258112
 C        -0.769302         1.294062        -0.204794
 C        -1.790166         1.337366        -1.328339
 H        -4.370614         1.033553        -1.541491
 H        -2.735398        -1.500786        -3.222362
 H        -1.260636        -0.852501        -2.972762
 H        -2.977293        -1.736805        -0.512859
 H        -0.977953        -1.644264         0.887138
 H        -0.063230        -2.174447        -0.471953
 H        -1.262688         1.474163         0.837723
 H         0.127141         1.878740        -0.326908
 H        -2.575349         2.110323        -1.153660
 H        -1.473983         1.648637        -2.356857
