19
Iteration:  2045
 O        -3.977165         0.286121        -1.333938
 C        -2.617453         0.017859        -1.442459
 C        -2.151273        -0.968984        -2.417651
 C        -2.163880        -1.295124        -0.920529
 C        -0.819958        -1.394145        -0.043403
 C         0.038413        -0.066980        -0.010741
 O         1.250605         0.082247         0.027552
 C        -0.923784         1.283381         0.022009
 C        -1.670332         1.240194        -1.282749
 H        -4.145760         0.912756        -2.005103
 H        -2.926464        -1.349741        -3.040824
 H        -1.184629        -0.723617        -2.926184
 H        -2.827429        -2.087733        -0.628800
 H        -1.084982        -1.564595         1.003374
 H        -0.172402        -2.237042        -0.348756
 H        -1.447016         1.158686         0.974610
 H        -0.233631         2.152729         0.066145
 H        -2.281272         2.195783        -1.606554
 H        -0.934195         1.134937        -2.230633
