19
Iteration:   141
 O        -4.050373         0.319003        -1.705678
 C        -2.667163         0.029955        -1.512136
 C        -2.114967        -1.166102        -2.278217
 C        -2.172839        -1.313257        -0.769864
 C        -0.769561        -1.212259         0.086459
 C         0.093000         0.023054        -0.141868
 O         1.301411        -0.077055        -0.021332
 C        -0.681207         1.221144        -0.145216
 C        -1.921702         1.339211        -1.034459
 H        -4.186077         1.227343        -1.124351
 H        -2.797688        -1.678960        -2.863304
 H        -1.140139        -1.142317        -2.727577
 H        -3.015958        -1.901685        -0.446459
 H        -0.916850        -1.243317         1.206361
 H        -0.123962        -2.027158        -0.194553
 H        -1.013179         1.084461         0.943576
 H        -0.102582         2.155099        -0.072664
 H        -2.822636         1.888053        -0.427498
 H        -1.642827         1.979674        -1.937005
