19
Iteration:  2231
 O        -4.046222         0.363545        -1.437377
 C        -2.652037         0.029291        -1.438090
 C        -1.986474        -0.992572        -2.322047
 C        -2.096053        -1.248568        -0.847140
 C        -0.812793        -1.357730         0.014776
 C        -0.005239        -0.088237        -0.054522
 O         1.269548         0.020168        -0.059889
 C        -0.849264         1.186496        -0.006795
 C        -1.836024         1.323062        -1.218969
 H        -4.215697         0.228147        -2.477414
 H        -2.695096        -1.648255        -2.967101
 H        -1.013729        -0.954187        -2.753289
 H        -2.849047        -2.088503        -0.696235
 H        -0.952384        -1.466301         1.127027
 H        -0.208514        -2.165866        -0.421334
 H        -1.310663         1.297265         1.084807
 H        -0.080808         1.971500        -0.126788
 H        -2.658563         2.194286        -1.004928
 H        -1.296472         1.557007        -2.131710
