19
Iteration:  3616
 O        -3.979686         0.324643        -1.101585
 C        -2.623461        -0.003765        -1.424180
 C        -2.438967        -1.134693        -2.392589
 C        -2.092179        -1.278369        -0.959210
 C        -0.522852        -1.242650        -0.678304
 C         0.008528        -0.024378        -0.025084
 O         1.056461         0.067418         0.688303
 C        -0.806343         1.243322        -0.208073
 C        -1.619470         1.295316        -1.482452
 H        -4.270576        -0.012857        -0.312588
 H        -3.304484        -1.607766        -2.987271
 H        -1.607219        -1.034487        -3.077056
 H        -2.650177        -2.088772        -0.425051
 H        -0.170394        -2.074518         0.011156
 H         0.088739        -1.502629        -1.595853
 H        -1.535918         1.387018         0.611082
 H        -0.180035         2.179015        -0.299918
 H        -2.156341         2.296594        -1.835767
 H        -0.873978         1.214734        -2.205758
