19
Iteration:  2524
 O        -4.019302         0.133731        -1.254976
 C        -2.634257         0.058410        -1.426677
 C        -2.173793        -0.959593        -2.458309
 C        -2.055498        -1.261297        -0.954203
 C        -0.839536        -1.224352        -0.151766
 C        -0.007805        -0.007805        -0.048789
 O         1.223841        -0.025069         0.192796
 C        -0.831042         1.217872        -0.054344
 C        -1.654549         1.289571        -1.347672
 H        -4.354578         1.079726        -1.493848
 H        -2.998787        -1.437090        -2.884604
 H        -1.219017        -0.988635        -3.016429
 H        -2.786897        -1.984516        -0.690610
 H        -1.126807        -1.350960         0.930703
 H        -0.125773        -1.973353        -0.534971
 H        -1.460881         1.335993         0.846594
 H        -0.217278         2.087043        -0.005469
 H        -2.300086         2.181654        -1.421900
 H        -0.886055         1.230329        -2.222757
