19
Iteration:   409charge 0 multiplicity 1
 O        -3.903399         0.415710        -1.260666
 C        -2.537591         0.001919        -1.510732
 C        -2.159486        -1.119012        -2.415272
 C        -2.069390        -1.243756        -0.952714
 C        -0.886684        -1.213486         0.024495
 C        -0.005409        -0.034701        -0.023222
 O         1.226717        -0.034942         0.002845
 C        -0.882309         1.225792        -0.015638
 C        -1.738409         1.287834        -1.337817
 H        -4.422533        -0.270057        -1.730725
 H        -2.955768        -1.804803        -2.823838
 H        -1.371010        -1.056621        -3.093983
 H        -2.889064        -1.883780        -0.613860
 H        -1.327779        -1.439044         0.968997
 H        -0.242793        -2.105455        -0.099900
 H        -1.525889         1.087117         0.863809
 H        -0.226819         2.128961         0.061849
 H        -2.348805         2.213596        -1.309423
 H        -1.064464         1.472166        -2.123401
