19
Iteration:  4303
 O        -3.922231         0.142317        -1.712098
 C        -2.562735         0.087814        -1.310121
 C        -1.819684        -1.008792        -2.213679
 C        -2.125962        -1.226361        -0.731992
 C        -0.872889        -1.414859        -0.025624
 C        -0.026029        -0.063397        -0.047235
 O         1.064524         0.026710        -0.512699
 C        -0.821959         1.224430         0.198231
 C        -1.859120         1.468596        -0.999204
 H        -4.474283         0.311714        -0.999315
 H        -2.444080        -1.590638        -2.928643
 H        -0.832818        -0.671379        -2.653720
 H        -2.895523        -1.986975        -0.669892
 H        -1.289252        -1.508916         1.097275
 H        -0.283971        -2.265800        -0.393603
 H        -1.456591         1.219994         1.122430
 H        -0.056878         2.051016         0.369771
 H        -2.565806         2.150749        -0.676634
 H        -1.477022         2.052933        -1.941855
