19
Iteration:   251charge 0 multiplicity 1
 O        -3.979301         0.385304        -1.560189
 C        -2.597171        -0.044318        -1.355840
 C        -1.901729        -0.955507        -2.301827
 C        -2.009821        -1.341160        -0.892183
 C        -0.932318        -1.279079         0.247871
 C        -0.053464        -0.017325        -0.018189
 O         1.130185        -0.116087        -0.272869
 C        -0.772828         1.274513        -0.112165
 C        -1.848134         1.328206        -1.150920
 H        -4.525135        -0.019307        -0.891650
 H        -2.599698        -1.512079        -2.987827
 H        -0.928872        -0.791555        -2.719939
 H        -2.677430        -2.213902        -0.635922
 H        -1.409984        -1.177156         1.241393
 H        -0.382499        -2.210217         0.201550
 H        -1.195774         1.459881         0.934163
 H        -0.065757         2.057258        -0.378081
 H        -2.418015         2.262160        -1.141784
 H        -1.386668         1.533913        -2.108843
