19
Iteration:  3253charge 0 multiplicity 1
 O        -3.995526         0.141430        -1.601582
 C        -2.585451         0.156917        -1.414790
 C        -1.857688        -0.896158        -2.307036
 C        -2.077420        -1.202604        -0.825767
 C        -0.802859        -1.355719         0.115073
 C        -0.050271        -0.084505         0.014130
 O         1.071192        -0.091188        -0.341975
 C        -0.809954         1.203524         0.039329
 C        -1.862584         1.385992        -1.106276
 H        -4.249187         0.500104        -0.714559
 H        -2.438779        -1.276302        -3.098606
 H        -0.816278        -0.618863        -2.665900
 H        -2.860335        -1.940532        -0.519705
 H        -0.997416        -1.607406         1.144001
 H        -0.181599        -2.169463        -0.245285
 H        -1.381547         1.145811         0.932631
 H        -0.124686         2.019726         0.084834
 H        -2.715662         2.175533        -0.796227
 H        -1.455424         1.751169        -2.020894
