19
Iteration:  2914
 O        -3.985893         0.253720        -1.499895
 C        -2.590067         0.052344        -1.328957
 C        -2.094206        -0.898574        -2.429971
 C        -2.023446        -1.342860        -0.954773
 C        -0.887595        -1.360926         0.008419
 C        -0.022983        -0.065097        -0.019830
 O         1.232382         0.063594        -0.123090
 C        -0.825409         1.174971         0.033442
 C        -1.796730         1.331962        -1.202010
 H        -4.350622         0.348620        -0.585336
 H        -2.730422        -1.240256        -3.140598
 H        -1.013052        -0.825754        -2.731520
 H        -2.741821        -2.025648        -0.534185
 H        -1.390827        -1.460919         1.028490
 H        -0.335776        -2.321158        -0.085960
 H        -1.424517         1.203231         1.018539
 H        -0.016341         1.882589         0.001705
 H        -2.458907         2.193609        -1.009891
 H        -1.155946         1.747161        -2.083662
