19
Iteration:  3136charge 0 multiplicity 1
 O        -4.024796         0.032848        -1.775431
 C        -2.580469         0.089611        -1.376185
 C        -1.866088        -0.835656        -2.287415
 C        -2.161775        -1.299428        -0.786392
 C        -0.938487        -1.244835         0.114506
 C         0.013205        -0.096149        -0.216080
 O         1.204866        -0.103992        -0.302232
 C        -0.709775         1.253598         0.003686
 C        -1.942878         1.459568        -0.813894
 H        -4.453867         0.574903        -1.135992
 H        -2.347104        -1.143461        -3.115675
 H        -0.739854        -0.895584        -2.489910
 H        -3.010393        -1.944362        -0.517316
 H        -1.194099        -1.179503         1.221488
 H        -0.561036        -2.307757         0.001947
 H        -0.879440         1.306265         1.149582
 H         0.106559         1.995285        -0.252718
 H        -2.671813         2.072078        -0.400933
 H        -1.458368         2.007572        -1.703832
