19
Iteration:  3582
 O        -3.985224         0.251313        -1.155473
 C        -2.626556         0.032742        -1.481351
 C        -2.475076        -1.142967        -2.472935
 C        -2.000386        -1.249640        -0.993937
 C        -0.541908        -1.175571        -0.534840
 C        -0.012719         0.015169         0.089541
 O         1.112838        -0.004990         0.546323
 C        -0.836486         1.244986        -0.164451
 C        -1.638547         1.239482        -1.469160
 H        -4.030675         0.471460        -0.227886
 H        -3.460765        -1.573669        -2.670683
 H        -1.701649        -0.981081        -3.200865
 H        -2.695839        -1.969730        -0.532563
 H        -0.513052        -1.929374         0.328763
 H         0.256363        -1.432744        -1.278020
 H        -1.527923         1.480894         0.670931
 H        -0.097691         2.128519        -0.176283
 H        -2.284238         2.208513        -1.332080
 H        -0.971794         1.363056        -2.290379
