19
Iteration:  3614
 O        -3.970436         0.312040        -1.110719
 C        -2.636097        -0.001514        -1.418828
 C        -2.447646        -1.140053        -2.408885
 C        -2.099504        -1.260588        -0.958943
 C        -0.529412        -1.257162        -0.663843
 C         0.023228        -0.033212        -0.022056
 O         1.069162         0.070728         0.685147
 C        -0.810728         1.258924        -0.198177
 C        -1.635549         1.299397        -1.486682
 H        -4.276823        -0.038727        -0.252774
 H        -3.303658        -1.568809        -2.972526
 H        -1.562373        -1.050500        -2.993149
 H        -2.685133        -2.067170        -0.489332
 H        -0.173892        -2.163602        -0.026649
 H         0.098150        -1.420552        -1.565870
 H        -1.515345         1.409661         0.587824
 H        -0.175807         2.173803        -0.302498
 H        -2.118824         2.304071        -1.846180
 H        -0.806987         1.194481        -2.209459
