19
Iteration:  3899charge 0 multiplicity 1
 O        -3.779225         0.388438        -0.782555
 C        -2.600927         0.044155        -1.469978
 C        -2.573990        -1.200455        -2.399484
 C        -1.842256        -1.328710        -1.092502
 C        -0.332942        -1.167048        -0.984417
 C        -0.008240        -0.015526         0.023863
 O         0.575634        -0.010968         1.032245
 C        -0.741734         1.307186        -0.451108
 C        -1.672986         1.173495        -1.620541
 H        -3.767747         0.002846         0.130835
 H        -3.714722        -1.576182        -2.454624
 H        -1.950927        -1.247809        -3.278119
 H        -2.393429        -1.842584        -0.315989
 H         0.169026        -2.002883        -0.506087
 H         0.325714        -1.016574        -1.872553
 H        -1.169787         1.866086         0.423331
 H         0.164779         1.932619        -0.810581
 H        -2.426814         1.979704        -1.506590
 H        -1.279183         1.389446        -2.628104
