19
Iteration:  2713charge 0 multiplicity 1
 O        -3.997506         0.283749        -1.254775
 C        -2.622571         0.024870        -1.538842
 C        -2.272862        -1.012580        -2.502484
 C        -2.053119        -1.300399        -0.988333
 C        -0.747693        -1.264386        -0.191460
 C         0.025233         0.021323        -0.067523
 O         1.163083        -0.059627         0.311286
 C        -0.734054         1.311538        -0.111198
 C        -1.749362         1.268572        -1.262561
 H        -4.217110        -0.468959        -0.643369
 H        -3.102886        -1.241995        -3.114044
 H        -1.257798        -0.829143        -3.018241
 H        -2.799971        -2.099390        -0.741151
 H        -1.087631        -1.494195         0.888469
 H         0.051170        -1.962991        -0.499811
 H        -1.264376         1.444859         0.897163
 H        -0.041594         2.204207        -0.125024
 H        -2.602190         2.084800        -1.186319
 H        -1.036418         1.471316        -2.205857
