19
Iteration:  1885
 O        -4.015562         0.318293        -1.287639
 C        -2.627906         0.111117        -1.449304
 C        -2.136151        -0.994739        -2.388958
 C        -2.043361        -1.254105        -0.896565
 C        -0.758180        -1.425438        -0.161064
 C        -0.028365        -0.074001         0.010869
 O         1.190040        -0.039450         0.256395
 C        -0.737621         1.284200        -0.234474
 C        -1.833063         1.362424        -1.286055
 H        -4.395947         0.031071        -2.046353
 H        -2.785155        -1.651101        -3.084168
 H        -1.267878        -0.828530        -2.986783
 H        -2.860290        -1.936697        -0.628400
 H        -0.879907        -2.114981         0.704601
 H        -0.028839        -1.981324        -0.791614
 H        -1.238450         1.336246         0.751117
 H        -0.012444         2.115874        -0.271847
 H        -2.477783         2.239456        -0.750181
 H        -1.431614         1.500350        -2.312217
