19
Iteration:   804charge 0 multiplicity 1
 O        -3.696850         0.442270        -0.853984
 C        -2.548697        -0.034103        -1.392145
 C        -2.590395        -1.186670        -2.323138
 C        -1.847416        -1.275597        -0.932993
 C        -0.368497        -1.224745        -0.963917
 C        -0.069559         0.074331        -0.070960
 O         0.421105        -0.181201         1.021683
 C        -0.658230         1.388401        -0.485092
 C        -1.661691         1.142450        -1.720537
 H        -3.558891         0.735993         0.020660
 H        -3.540338        -1.597341        -2.636839
 H        -1.806697        -1.096265        -3.168323
 H        -2.181418        -1.684311        -0.013745
 H         0.104368        -2.003804        -0.390878
 H        -0.008893        -0.925571        -1.952171
 H        -0.875340         1.749871         0.513272
 H         0.171507         2.018097        -0.688218
 H        -2.405575         1.966661        -1.791972
 H        -1.137134         1.323327        -2.664591
