19
Iteration:  1388
 O        -3.976244         0.098131        -1.809676
 C        -2.614249         0.095265        -1.391612
 C        -1.874378        -0.838121        -2.219589
 C        -2.148933        -1.183841        -0.776095
 C        -0.945858        -1.303853         0.099523
 C        -0.007250        -0.094012        -0.078739
 O         1.198145        -0.220715        -0.325300
 C        -0.741478         1.279682        -0.019433
 C        -1.891524         1.485148        -0.907201
 H        -4.596192         0.119339        -0.961748
 H        -2.452737        -1.356531        -3.019076
 H        -0.853395        -0.519909        -2.479874
 H        -2.732088        -2.064532        -0.554155
 H        -1.251925        -1.382239         1.196024
 H        -0.451511        -2.284642        -0.069349
 H        -1.125852         1.512246         1.012911
 H         0.208676         1.849131        -0.010869
 H        -2.629988         2.119196        -0.393309
 H        -1.542734         1.956739        -1.871973
