19
Iteration:  1198
 O        -3.994354         0.175709        -1.557113
 C        -2.627224         0.153187        -1.553240
 C        -2.152594        -0.963060        -2.309456
 C        -2.042894        -1.165851        -0.826646
 C        -0.758419        -1.358210        -0.072592
 C         0.032947        -0.053143        -0.023188
 O         1.214722        -0.093721        -0.024834
 C        -0.879379         1.197978         0.062015
 C        -1.753579         1.364659        -1.229770
 H        -4.361694         0.738321        -0.746435
 H        -2.886304        -1.498307        -3.004998
 H        -1.211014        -0.851354        -2.794376
 H        -2.891936        -1.572193        -0.312161
 H        -0.983482        -1.612287         1.018510
 H        -0.212154        -2.316112        -0.348621
 H        -1.536581         0.967775         0.996836
 H        -0.356074         2.155675         0.259560
 H        -2.386612         2.239080        -1.041699
 H        -1.084316         1.605223        -2.095060
