19
Iteration:  2354
 O        -3.933150         0.347599        -1.333956
 C        -2.631298         0.037744        -1.445290
 C        -1.900128        -1.096134        -2.440442
 C        -2.065334        -1.165554        -0.947528
 C        -0.834733        -1.264698         0.074001
 C        -0.045168        -0.008953         0.062743
 O         1.130782        -0.110959        -0.219885
 C        -0.913640         1.284933         0.096533
 C        -1.746982         1.279052        -1.259245
 H        -4.407351        -0.580959        -1.421065
 H        -2.640818        -1.537983        -3.058653
 H        -0.931071        -0.694399        -2.937530
 H        -2.920108        -1.900341        -0.830819
 H        -1.376913        -1.514691         0.970631
 H        -0.154914        -2.020902        -0.336200
 H        -1.719173         1.190851         0.941181
 H        -0.353904         2.260844         0.238410
 H        -2.407075         2.125083        -1.017619
 H        -1.160591         1.374344        -2.178839
