19
Iteration:  4731
 O        -4.088218         0.132897        -0.997300
 C        -2.659745         0.077520        -1.231485
 C        -2.175461        -0.578058        -2.502665
 C        -1.951225        -1.291725        -1.161801
 C        -0.486793        -1.425863        -0.513051
 C         0.032168        -0.100796        -0.091086
 O         0.645680         0.047565         0.865134
 C        -0.380059         1.087391        -1.002290
 C        -1.844483         1.335144        -0.879759
 H        -4.516631        -0.156475        -1.784492
 H        -2.862735        -1.065807        -3.087417
 H        -1.353019        -0.079577        -3.002848
 H        -2.611807        -2.145171        -1.031825
 H        -0.504976        -2.107412         0.400928
 H         0.233479        -1.729968        -1.357334
 H         0.171281         2.029238        -0.678524
 H        -0.201332         0.764129        -2.027353
 H        -2.193275         1.577611         0.118389
 H        -2.075072         2.063470        -1.599690
