19
Iteration:  4396
 O        -3.966384         0.008489        -1.668165
 C        -2.540457         0.129467        -1.360516
 C        -1.794897        -0.758895        -2.247907
 C        -2.103795        -1.229642        -0.854247
 C        -0.859348        -1.353069         0.067774
 C        -0.067957        -0.065481        -0.024723
 O         1.131520        -0.175315        -0.392034
 C        -0.725347         1.266718        -0.044753
 C        -2.028650         1.447517        -0.919780
 H        -4.472913         0.324373        -0.818996
 H        -2.433300        -1.146652        -3.057344
 H        -0.827684        -0.595702        -2.521849
 H        -2.837449        -1.994741        -0.574350
 H        -1.272137        -1.303278         1.066713
 H        -0.112187        -2.180560        -0.105988
 H        -1.071382         1.459859         0.978545
 H        -0.037999         2.025284        -0.216581
 H        -2.794586         2.018798        -0.261868
 H        -1.897004         2.087179        -1.742244
