19
Iteration:  2371charge 0 multiplicity 1
 O        -3.966924         0.298895        -1.337726
 C        -2.562567        -0.011756        -1.520047
 C        -1.988161        -0.977480        -2.430449
 C        -2.048686        -1.278899        -0.896008
 C        -0.872549        -1.279529        -0.018112
 C        -0.079198        -0.032469        -0.007983
 O         1.156327        -0.087814        -0.126864
 C        -0.861946         1.290431         0.061230
 C        -1.763950         1.397305        -1.180543
 H        -4.327188        -0.614588        -1.379966
 H        -2.581838        -1.703102        -3.018770
 H        -1.034621        -0.830787        -2.855463
 H        -2.902401        -1.902123        -0.641626
 H        -1.250193        -1.425987         1.037546
 H        -0.219393        -2.157873        -0.095166
 H        -1.490600         1.364075         0.941890
 H        -0.187917         2.108137        -0.058274
 H        -2.512167         2.206789        -1.348915
 H        -0.961005         1.571924        -2.047391
