19
Iteration:  2739
 O        -4.017640         0.320991        -1.258632
 C        -2.651434         0.020058        -1.412920
 C        -2.094946        -1.076476        -2.484060
 C        -2.051960        -1.258221        -0.991700
 C        -0.797848        -1.311383        -0.266576
 C         0.024377        -0.018875        -0.043880
 O         1.254641        -0.051523         0.304581
 C        -0.816274         1.278346        -0.131552
 C        -1.794743         1.309243        -1.301959
 H        -4.219586         0.146358        -0.277606
 H        -2.965920        -1.501861        -3.093294
 H        -1.342677        -0.667719        -3.107838
 H        -2.759224        -2.053410        -0.878964
 H        -1.164736        -1.377806         0.781923
 H        -0.173061        -2.174316        -0.569952
 H        -1.487501         1.471828         0.680587
 H        -0.163886         2.157799        -0.078574
 H        -2.581179         2.090918        -1.056469
 H        -1.296335         1.562961        -2.334890
