19
Iteration:  2160
 O        -4.053269         0.186654        -1.270837
 C        -2.615576         0.059344        -1.463374
 C        -2.015654        -0.930491        -2.517313
 C        -2.066908        -1.258925        -0.955347
 C        -0.819842        -1.287424         0.034713
 C        -0.009974        -0.059341         0.021385
 O         1.205946        -0.082952         0.147994
 C        -0.705555         1.219147        -0.208896
 C        -1.876985         1.330838        -1.272864
 H        -4.574914         0.999150        -1.649108
 H        -2.613449        -1.577813        -3.214627
 H        -1.055294        -0.657144        -3.027228
 H        -2.818301        -2.009633        -0.712026
 H        -1.265755        -1.282308         1.061458
 H        -0.110218        -2.120286        -0.121289
 H        -1.176147         1.613895         0.795659
 H         0.131081         1.901676        -0.456189
 H        -2.654742         1.998466        -0.880322
 H        -1.539810         1.865494        -2.280765
