19
Iteration:  1712
 O        -3.874099         0.442708        -1.346606
 C        -2.547296         0.032304        -1.459566
 C        -2.075450        -1.034405        -2.348932
 C        -2.163700        -1.253523        -0.825491
 C        -0.808465        -1.380293        -0.158804
 C        -0.073207        -0.010756        -0.016456
 O         1.186566         0.058318        -0.069303
 C        -0.958466         1.187580         0.134717
 C        -1.687765         1.240596        -1.270451
 H        -4.356322        -0.076001        -2.108099
 H        -2.898717        -1.678927        -2.998269
 H        -1.091770        -1.163236        -2.868662
 H        -2.996863        -1.915943        -0.597824
 H        -0.870406        -1.782965         0.928948
 H        -0.060621        -2.041276        -0.652935
 H        -1.753662         0.996731         1.024392
 H        -0.512233         2.166823         0.074202
 H        -2.360669         2.122256        -1.521575
 H        -0.883515         1.272443        -2.078272
