19
Iteration:   954charge 0 multiplicity 1
 O        -3.890915         0.370103        -1.023590
 C        -2.648159         0.048272        -1.458094
 C        -2.551108        -1.096341        -2.363430
 C        -1.979397        -1.264910        -1.032452
 C        -0.482038        -1.225230        -0.807823
 C        -0.050883         0.004235         0.054928
 O         0.900192        -0.007034         0.884239
 C        -0.762906         1.338389        -0.281959
 C        -1.580543         1.045806        -1.600366
 H        -3.864543         0.690021        -0.007168
 H        -3.419867        -1.698894        -2.704940
 H        -1.973890        -1.057226        -3.237823
 H        -2.552665        -1.908408        -0.373479
 H        -0.198365        -2.126383        -0.263186
 H         0.082570        -1.299757        -1.780995
 H        -1.360494         1.840976         0.502238
 H        -0.066208         2.187204        -0.588431
 H        -1.847937         2.092221        -1.937138
 H        -0.860758         0.551140        -2.269447
