19
Iteration:  2567charge 0 multiplicity 1
 O        -3.903830         0.362391        -1.229379
 C        -2.521271         0.024812        -1.498648
 C        -2.173616        -1.101588        -2.457935
 C        -2.085609        -1.308810        -0.893462
 C        -0.755089        -1.269710        -0.196071
 C        -0.057202        -0.010421         0.038092
 O         1.165751         0.058656         0.094733
 C        -0.957243         1.167940        -0.002548
 C        -1.711116         1.265638        -1.319889
 H        -4.000299         1.163025        -1.818571
 H        -3.056348        -1.656877        -2.729338
 H        -1.308041        -0.921570        -3.129043
 H        -2.932557        -1.862469        -0.539494
 H        -0.894771        -1.833166         0.759411
 H        -0.045849        -1.963874        -0.698229
 H        -1.629960         1.052052         0.905459
 H        -0.308378         2.044919         0.120355
 H        -2.405323         2.067593        -1.353314
 H        -1.034877         1.242382        -2.186523
