19
Iteration:   602charge 0 multiplicity 1
 O        -3.821943         0.353756        -1.097775
 C        -2.553358         0.057006        -1.521052
 C        -2.516670        -1.109617        -2.388806
 C        -2.018185        -1.230646        -0.954365
 C        -0.546638        -1.373336        -0.560388
 C        -0.039819        -0.023755        -0.027468
 O         0.976761         0.055579         0.656472
 C        -0.892672         1.169821        -0.190440
 C        -1.610634         1.271306        -1.575074
 H        -3.805080         1.103240        -0.326516
 H        -3.522361        -1.414263        -2.541560
 H        -1.741929        -1.152443        -3.170934
 H        -2.628748        -1.511506        -0.126833
 H        -0.526988        -2.228008         0.141884
 H         0.186759        -1.691591        -1.317248
 H        -1.567614         1.247590         0.630091
 H        -0.206252         2.024542        -0.231796
 H        -2.263829         2.168775        -1.819829
 H        -0.831351         1.055949        -2.341089
