19
Iteration:  3753charge 0 multiplicity 1
 O        -3.893050         0.237286        -0.866806
 C        -2.587386         0.062523        -1.397018
 C        -2.574013        -1.202161        -2.449113
 C        -1.885156        -1.241678        -1.020650
 C        -0.377152        -1.190525        -0.931315
 C        -0.059610        -0.005844        -0.004027
 O         0.631249        -0.036488         1.040458
 C        -0.577993         1.344806        -0.494470
 C        -1.658644         1.259281        -1.563889
 H        -3.731120         0.501510         0.119325
 H        -3.584267        -1.677216        -2.569363
 H        -1.917313        -1.256841        -3.284642
 H        -2.238715        -1.667777        -0.047879
 H         0.114095        -2.208233        -0.789123
 H        -0.008088        -0.901467        -1.933391
 H        -1.088291         1.830948         0.390782
 H         0.205900         2.038568        -0.826179
 H        -2.215086         2.098734        -1.664084
 H        -1.289188         0.989057        -2.599969
