19
Iteration:  4362
 O        -4.032011         0.220168        -1.710586
 C        -2.629486         0.059538        -1.446458
 C        -1.782277        -0.847424        -2.274316
 C        -2.042477        -1.417833        -0.844447
 C        -0.837215        -1.263803         0.215143
 C         0.037152        -0.018758        -0.095017
 O         1.131970        -0.119815        -0.530185
 C        -0.812554         1.230176         0.113103
 C        -1.969944         1.364058        -0.866702
 H        -4.525057         0.600282        -0.909729
 H        -2.205670        -1.320982        -3.171743
 H        -0.829274        -0.495590        -2.414086
 H        -2.815125        -2.199158        -0.780942
 H        -1.400153        -1.127840         1.134830
 H        -0.145001        -2.122364         0.482080
 H        -1.269635         1.059992         1.085937
 H        -0.246243         2.135618         0.109306
 H        -2.715420         2.070602        -0.380826
 H        -1.567287         1.793183        -1.752409
