19
Iteration:  1739
 O        -3.982909         0.309556        -1.369962
 C        -2.588834         0.027443        -1.538405
 C        -2.305293        -1.104788        -2.393279
 C        -2.060758        -1.249488        -0.923754
 C        -0.805212        -1.355304        -0.106730
 C        -0.008565        -0.001080        -0.004575
 O         1.184946         0.062934         0.018721
 C        -0.818445         1.196818         0.202378
 C        -1.570574         1.358640        -1.293386
 H        -4.326198         0.114072        -2.305365
 H        -2.994758        -1.680524        -2.888062
 H        -1.549374        -1.023448        -3.163525
 H        -2.913233        -1.742948        -0.435255
 H        -1.056883        -1.601902         0.927511
 H        -0.038566        -2.080233        -0.413525
 H        -1.549678         1.004499         0.889246
 H        -0.319252         2.165331         0.337257
 H        -2.279145         2.153121        -1.342862
 H        -0.871690         1.550977        -2.086234
