19
Iteration:  1582
 O        -4.043086         0.194935        -1.547377
 C        -2.636336         0.051830        -1.421103
 C        -1.976518        -0.874716        -2.389780
 C        -2.139984        -1.269424        -0.901523
 C        -0.903960        -1.343293         0.022630
 C         0.084373        -0.051137        -0.120553
 O         1.282869        -0.149575         0.012449
 C        -0.737558         1.273898        -0.065955
 C        -1.889746         1.425926        -1.119771
 H        -4.499502         0.244798        -0.725752
 H        -2.634546        -1.411815        -3.090119
 H        -0.935033        -0.590937        -2.654317
 H        -2.905722        -2.009236        -0.748836
 H        -1.269486        -1.430187         1.075327
 H        -0.399649        -2.305757        -0.197941
 H        -1.235777         1.426827         0.896522
 H        -0.035522         2.082774        -0.026698
 H        -2.579611         2.168533        -0.743431
 H        -1.502009         1.815105        -2.085044
