19
Iteration:  1158
 O        -3.966806         0.401654        -1.500903
 C        -2.572213         0.032034        -1.451382
 C        -2.214754        -1.045902        -2.380105
 C        -2.195359        -1.351326        -0.837425
 C        -0.765849        -1.408728        -0.261202
 C         0.060690         0.048198        -0.024469
 O         1.232007         0.026433         0.165983
 C        -0.815748         1.264679        -0.021211
 C        -1.759176         1.224923        -1.216519
 H        -4.169051         0.495821        -0.576963
 H        -3.025656        -1.527773        -2.934011
 H        -1.238577        -0.732052        -2.763795
 H        -3.054687        -1.953698        -0.474945
 H        -0.955480        -1.789347         0.752760
 H         0.040637        -1.976321        -0.667896
 H        -1.434570         1.169670         0.837471
 H        -0.165639         2.150651         0.098023
 H        -2.530138         1.997146        -1.297403
 H        -1.120283         1.433598        -2.109687
