19
Iteration:  4424
 O        -4.032946         0.122325        -1.673839
 C        -2.628959         0.059361        -1.368822
 C        -1.834438        -0.856632        -2.303969
 C        -2.124201        -1.245905        -0.866559
 C        -0.883604        -1.282968        -0.028043
 C         0.051915        -0.042530        -0.170419
 O         1.215329        -0.185904        -0.198624
 C        -0.650154         1.335276        -0.051676
 C        -2.084365         1.397784        -0.821471
 H        -4.465292        -0.241446        -0.808884
 H        -2.525888        -1.463588        -2.942200
 H        -0.816418        -0.575084        -2.759579
 H        -2.767384        -2.107173        -0.673577
 H        -1.186373        -1.120477         1.048509
 H        -0.243764        -2.156588        -0.111386
 H        -0.873638         1.428881         1.041955
 H         0.067992         2.211851        -0.284959
 H        -2.835705         1.869628        -0.260820
 H        -1.986484         2.070400        -1.780329
