19
Iteration:  2455
 O        -3.960358         0.249813        -1.471019
 C        -2.614124         0.075426        -1.388028
 C        -2.195543        -1.000294        -2.371532
 C        -2.174836        -1.253057        -0.845784
 C        -0.738422        -1.295319        -0.176214
 C         0.101276        -0.042287        -0.114771
 O         1.250481        -0.057185         0.227315
 C        -0.771442         1.272091        -0.105215
 C        -1.906735         1.354940        -1.201806
 H        -4.388636        -0.581393        -1.850541
 H        -2.974008        -1.445402        -3.140385
 H        -1.189533        -0.943286        -2.838544
 H        -2.894145        -2.017512        -0.444234
 H        -0.929544        -1.539983         0.860614
 H        -0.163363        -2.038158        -0.775430
 H        -1.039351         1.572410         0.931600
 H         0.036402         2.088951        -0.253383
 H        -2.587207         2.055466        -0.846614
 H        -1.473776         1.711842        -2.095923
