19
Iteration:  4160
 O        -4.068342         0.249427        -1.346570
 C        -2.672676        -0.051271        -1.459079
 C        -2.336822        -0.964677        -2.531023
 C        -2.074839        -1.321465        -0.955381
 C        -0.666049        -1.364581        -0.228756
 C         0.075223         0.050554        -0.076700
 O         1.281734         0.058174         0.310867
 C        -0.761739         1.291948        -0.069141
 C        -1.751782         1.285651        -1.231117
 H        -4.282117         0.482591        -0.484693
 H        -3.218986        -1.525296        -2.868921
 H        -1.387638        -0.907275        -3.113158
 H        -2.822885        -2.078883        -0.686122
 H        -0.816933        -1.814105         0.781889
 H         0.056031        -2.011055        -0.729991
 H        -1.217916         1.270959         0.923361
 H        -0.158875         2.181698        -0.091566
 H        -2.446245         2.048514        -1.027089
 H        -1.413995         1.599306        -2.313245
