19
Iteration:  3368charge 0 multiplicity 1
 O        -4.092689         0.327541        -1.363792
 C        -2.624087         0.026276        -1.355458
 C        -2.058240        -0.945929        -2.430427
 C        -2.058286        -1.288406        -0.926797
 C        -0.727707        -1.390454        -0.178230
 C         0.053511        -0.023705        -0.033070
 O         1.253473         0.014950         0.118999
 C        -0.922117         1.191685        -0.093222
 C        -1.835073         1.300494        -1.276787
 H        -4.455980         0.755545        -0.618501
 H        -2.655803        -1.618896        -2.973333
 H        -0.929409        -0.766795        -2.702512
 H        -2.928629        -1.907354        -0.688723
 H        -0.766779        -1.729977         0.905970
 H        -0.010390        -2.122506        -0.609101
 H        -1.398733         1.056514         0.887049
 H        -0.366485         2.130289        -0.127761
 H        -2.419614         2.171300        -1.218439
 H        -1.141474         1.394201        -2.210118
