19
Iteration:  4477charge 0 multiplicity 1
 O        -4.086051         0.147724        -1.592589
 C        -2.684861         0.098406        -1.340556
 C        -1.915373        -0.804344        -2.378198
 C        -2.014120        -1.331501        -0.974871
 C        -0.832440        -1.302898        -0.021162
 C         0.045689        -0.069548        -0.096298
 O         1.228130        -0.136373         0.038913
 C        -0.617578         1.268526        -0.343043
 C        -2.087868         1.358457        -0.814621
 H        -4.502254         0.282609        -0.657304
 H        -2.644173        -1.257785        -3.130866
 H        -0.900196        -0.367953        -2.710564
 H        -2.724264        -2.078328        -0.606718
 H        -1.232991        -1.404534         0.956089
 H        -0.092640        -2.031756        -0.120961
 H        -0.530692         1.850278         0.542933
 H         0.047867         1.795295        -1.120870
 H        -2.763891         1.501823         0.054843
 H        -2.213065         2.192442        -1.534646
