19
Iteration:  2329charge 0 multiplicity 1
 O        -3.924026         0.428470        -1.447558
 C        -2.567646         0.033739        -1.435709
 C        -2.003490        -0.967515        -2.340116
 C        -2.010595        -1.334221        -0.878021
 C        -0.840401        -1.364356         0.109035
 C        -0.097013        -0.089714        -0.095739
 O         1.153577         0.063859        -0.252763
 C        -0.987230         1.186204         0.125491
 C        -1.697257         1.301401        -1.250632
 H        -4.353771        -0.532109        -1.348845
 H        -2.625396        -1.566835        -3.004225
 H        -0.978327        -0.827961        -2.574604
 H        -2.953669        -1.832898        -0.664262
 H        -1.407952        -1.317472         1.040766
 H        -0.256566        -2.256423        -0.032347
 H        -1.530023         1.094987         1.142235
 H        -0.253991         1.982432         0.158397
 H        -2.441150         2.121021        -1.173993
 H        -0.987113         1.363455        -1.963090
