19
Iteration:  3985
 O        -3.936441         0.319741        -0.962551
 C        -2.639068        -0.054188        -1.459456
 C        -2.584102        -1.123118        -2.505084
 C        -1.947584        -1.337125        -1.098182
 C        -0.389271        -1.226396        -0.762993
 C        -0.000236         0.028788         0.041203
 O         0.953758         0.013633         0.895898
 C        -0.739998         1.291846        -0.340562
 C        -1.733858         1.254899        -1.517017
 H        -3.946497         0.893745        -0.100193
 H        -3.625753        -1.646870        -2.644425
 H        -1.862700        -1.040570        -3.370632
 H        -2.374069        -1.860770        -0.236866
 H        -0.173586        -1.971106         0.038281
 H         0.314253        -1.300457        -1.650195
 H        -1.331506         1.639055         0.513466
 H        -0.021657         2.086590        -0.487340
 H        -2.305834         2.098816        -1.595292
 H        -1.111646         1.028710        -2.459238
