19
Iteration:  2923charge 0 multiplicity 1
 O        -4.043220         0.212390        -1.519592
 C        -2.623856         0.022701        -1.395392
 C        -2.044445        -0.849321        -2.416495
 C        -2.145704        -1.323343        -0.915408
 C        -0.814336        -1.360600         0.003905
 C         0.041570        -0.071643        -0.021207
 O         1.222591         0.010836        -0.110117
 C        -0.754316         1.209079         0.057643
 C        -1.793850         1.352140        -1.192562
 H        -4.539828         0.244995        -0.662086
 H        -2.705187        -1.273694        -3.197938
 H        -0.990158        -0.625595        -2.701567
 H        -3.050135        -1.829675        -0.661680
 H        -1.071684        -1.272227         1.107568
 H        -0.114314        -2.202919        -0.068510
 H        -1.459043         1.205007         0.966996
 H        -0.031187         2.096642         0.145516
 H        -2.547746         2.146312        -0.981245
 H        -1.300715         1.467120        -2.131511
