19
Iteration:  1009charge 0 multiplicity 1
 O        -3.992863         0.367699        -1.210367
 C        -2.543016         0.075312        -1.503601
 C        -2.539245        -1.245480        -2.403209
 C        -1.994632        -1.103061        -0.911110
 C        -0.485694        -1.283333        -0.630166
 C         0.025406        -0.076848         0.017731
 O         1.073557        -0.037468         0.687081
 C        -0.875765         1.251708        -0.110597
 C        -1.642313         1.265281        -1.578351
 H        -3.872766         0.772050        -0.253999
 H        -3.560143        -1.690870        -2.536561
 H        -1.808774        -1.250806        -3.145876
 H        -2.740402        -1.525799        -0.200477
 H        -0.297461        -2.178441        -0.041041
 H         0.134099        -1.738289        -1.408873
 H        -1.658312         1.218503         0.679599
 H        -0.302707         2.213860        -0.039176
 H        -2.170660         2.260508        -1.614259
 H        -0.915961         1.313916        -2.413048
