19
Iteration:  4776
 O        -3.959822         0.223558        -0.876089
 C        -2.658104         0.086960        -1.470700
 C        -2.273605        -0.771559        -2.666068
 C        -1.935346        -1.326095        -1.216946
 C        -0.622447        -1.349932        -0.575530
 C        -0.036897        -0.004717        -0.058331
 O         0.706938         0.006770         0.935872
 C        -0.294702         1.146895        -0.846778
 C        -1.876549         1.321423        -0.922875
 H        -4.307255        -0.656105        -0.609729
 H        -3.059018        -1.308242        -3.154544
 H        -1.568113        -0.427333        -3.273619
 H        -2.559215        -2.237549        -0.981987
 H        -0.545993        -1.971344         0.340418
 H         0.224227        -1.697399        -1.332367
 H        -0.056089         2.130299        -0.256611
 H         0.032811         0.963709        -1.877895
 H        -2.169701         1.495812         0.073192
 H        -2.151053         2.074250        -1.554278
