19
Iteration:  1950
 O        -4.070882         0.323742        -1.411382
 C        -2.637063         0.055252        -1.502966
 C        -2.218721        -1.085542        -2.381377
 C        -2.077069        -1.192079        -0.887628
 C        -0.684625        -1.358923        -0.146566
 C         0.035036         0.004934         0.050296
 O         1.250206         0.021576         0.029307
 C        -0.904787         1.187699         0.108997
 C        -1.683146         1.233297        -1.261600
 H        -4.375101         1.107342        -1.996320
 H        -3.024544        -1.521109        -2.970260
 H        -1.219745        -0.980790        -2.861084
 H        -2.742704        -1.825289        -0.331969
 H        -1.021522        -1.603887         0.914323
 H        -0.012464        -2.177590        -0.500934
 H        -1.703567         1.146449         0.883632
 H        -0.228299         2.050067         0.084205
 H        -2.138774         2.231636        -1.544108
 H        -0.920252         1.192350        -2.108653
