19
Iteration:  3261charge 0 multiplicity 1
 O        -3.975332         0.186372        -1.579805
 C        -2.579247         0.071470        -1.430713
 C        -1.904715        -0.843886        -2.315826
 C        -2.067529        -1.231706        -0.745186
 C        -0.845067        -1.436695         0.084098
 C        -0.064446        -0.129577        -0.027826
 O         1.147085        -0.022698        -0.323062
 C        -0.851650         1.236161        -0.012712
 C        -1.855443         1.367550        -1.089959
 H        -4.364766         0.603354        -0.820493
 H        -2.230469        -1.265786        -3.268425
 H        -0.778693        -0.593879        -2.451217
 H        -2.909178        -1.898812        -0.523168
 H        -1.171264        -1.512274         1.153138
 H        -0.184273        -2.251185        -0.221612
 H        -1.486476         1.156326         0.963433
 H        -0.234854         2.116387         0.106708
 H        -2.541217         2.216164        -0.791073
 H        -1.392738         1.683879        -2.063873
