19
Iteration:  3925charge 0 multiplicity 1
 O        -3.831162         0.283105        -0.872048
 C        -2.622286         0.032476        -1.457737
 C        -2.588515        -1.162609        -2.426264
 C        -1.843568        -1.278660        -1.004224
 C        -0.408917        -1.220571        -0.838059
 C        -0.031680         0.009660        -0.061363
 O         0.675436        -0.107149         0.994583
 C        -0.649159         1.439523        -0.461552
 C        -1.687212         1.283519        -1.588941
 H        -3.861428        -0.197603         0.020465
 H        -3.230890        -1.963072        -2.332289
 H        -2.041563        -1.176469        -3.408903
 H        -2.533536        -1.876479        -0.389762
 H         0.083261        -2.046358        -0.320514
 H         0.167419        -1.151596        -1.747860
 H        -1.131996         1.832316         0.450586
 H         0.146763         2.178996        -0.721251
 H        -2.438522         2.244220        -1.634754
 H        -1.268109         1.380889        -2.575044
