19
Iteration:  3308charge 0 multiplicity 1
 O        -3.972823         0.233081        -1.637054
 C        -2.604669         0.057677        -1.469015
 C        -2.161732        -1.045155        -2.373756
 C        -2.097174        -1.236603        -0.838478
 C        -0.749405        -1.304165        -0.038855
 C         0.051713        -0.006172         0.000241
 O         1.250990        -0.055134        -0.177711
 C        -0.872707         1.262310         0.188881
 C        -1.813020         1.320608        -1.114125
 H        -4.393958         0.502160        -0.709518
 H        -2.767302        -1.751572        -2.967511
 H        -1.301797        -0.799429        -2.961126
 H        -2.966100        -1.821067        -0.439235
 H        -0.840724        -1.461584         1.025277
 H        -0.095195        -2.045666        -0.498344
 H        -1.300046         1.296509         1.188532
 H        -0.201778         2.110262         0.069621
 H        -2.795164         1.972318        -0.812433
 H        -1.380868         1.844742        -1.935518
