19
Iteration:   292charge 0 multiplicity 1
 O        -3.971009         0.112442        -1.705699
 C        -2.571155         0.172944        -1.449488
 C        -2.026156        -1.106128        -2.171735
 C        -2.236240        -1.077733        -0.695516
 C        -0.888530        -1.292190         0.029517
 C         0.034802        -0.080131        -0.115135
 O         1.262332        -0.095694        -0.203042
 C        -0.786751         1.210881        -0.027226
 C        -1.810583         1.494519        -1.113701
 H        -4.432536         0.004190        -0.743228
 H        -2.648905        -1.577037        -2.969800
 H        -1.046407        -1.203605        -2.534059
 H        -3.054373        -1.724452        -0.327358
 H        -1.135531        -1.505211         1.096651
 H        -0.262338        -2.127001        -0.285443
 H        -1.335476         1.030316         0.902251
 H        -0.098370         2.059243         0.088250
 H        -2.514339         2.277651        -0.936456
 H        -1.275233         1.910377        -2.052658
