19
Iteration:  3634
 O        -3.938315         0.435916        -1.087747
 C        -2.624511         0.008448        -1.449632
 C        -2.462776        -1.115309        -2.388935
 C        -1.886612        -1.293299        -1.000738
 C        -0.461805        -1.291260        -0.651144
 C        -0.015096         0.056439        -0.095171
 O         0.947082        -0.007310         0.704652
 C        -0.811754         1.316314        -0.194700
 C        -1.725550         1.127200        -1.502592
 H        -4.069041         0.047885        -0.278092
 H        -3.433672        -1.577810        -2.502318
 H        -1.692395        -1.144101        -3.135485
 H        -2.582996        -1.870182        -0.395788
 H        -0.197408        -2.198037        -0.017509
 H         0.256269        -1.364760        -1.465900
 H        -1.564112         1.285505         0.596987
 H        -0.181531         2.212639        -0.078500
 H        -2.294734         2.067261        -1.480934
 H        -1.092003         1.268940        -2.491900
