19
Iteration:   503charge 0 multiplicity 1
 O        -3.921235         0.364680        -1.215057
 C        -2.576940         0.022898        -1.517141
 C        -2.422460        -1.202863        -2.398023
 C        -2.083821        -1.179301        -0.929131
 C        -0.692828        -1.331888        -0.381973
 C         0.057655         0.019847         0.015538
 O         1.227578        -0.007514         0.381411
 C        -0.873456         1.231148        -0.073878
 C        -1.677086         1.303762        -1.380590
 H        -4.298286         0.745899        -2.146091
 H        -3.347162        -1.758083        -2.725933
 H        -1.655544        -1.241929        -3.127342
 H        -2.737705        -1.688065        -0.287365
 H        -0.605012        -1.761216         0.632059
 H        -0.152710        -2.087933        -0.959618
 H        -1.580095         1.210824         0.748423
 H        -0.242995         2.114843         0.008684
 H        -2.480704         2.048685        -1.297045
 H        -1.128498         1.622099        -2.304181
