19
Iteration:  4388charge 0 multiplicity 1
 O        -3.958780         0.061951        -1.660192
 C        -2.574825         0.091422        -1.371217
 C        -1.770527        -0.735931        -2.247189
 C        -2.045853        -1.222388        -0.799692
 C        -0.883826        -1.313220         0.094572
 C        -0.055010        -0.122756        -0.049903
 O         1.116511        -0.121989        -0.432476
 C        -0.723435         1.252228         0.002781
 C        -2.029237         1.376675        -0.928896
 H        -4.668892         0.413049        -0.958167
 H        -2.440922        -1.213839        -2.932524
 H        -0.686513        -0.516861        -2.661214
 H        -2.869024        -1.943708        -0.822344
 H        -1.340446        -1.389186         1.042329
 H        -0.330750        -2.178050         0.008895
 H        -1.169673         1.420821         0.978174
 H         0.114123         1.942501        -0.198691
 H        -2.824316         1.932606        -0.317151
 H        -1.872357         1.849894        -1.886040
