19
Iteration:  2213charge 0 multiplicity 1
 O        -4.051598         0.209393        -1.374822
 C        -2.637412         0.040170        -1.457353
 C        -1.977746        -0.994910        -2.416961
 C        -2.073679        -1.216255        -0.857268
 C        -0.839551        -1.264266        -0.016937
 C        -0.028969         0.023663        -0.017718
 O         1.217043        -0.145828        -0.011387
 C        -0.770218         1.295793        -0.069422
 C        -1.800886         1.302850        -1.197033
 H        -4.540824         0.680206        -2.164689
 H        -2.563370        -1.697092        -3.005023
 H        -1.133183        -0.489531        -2.854308
 H        -2.773976        -1.922872        -0.417391
 H        -1.249309        -1.478065         0.965581
 H        -0.151324        -2.040706        -0.350443
 H        -1.370322         1.269112         0.768531
 H        -0.177865         2.179940        -0.103253
 H        -2.495995         2.031916        -0.953546
 H        -1.209936         1.478497        -2.109820
