19
Iteration:  4141charge 0 multiplicity 1
 O        -4.002132         0.201084        -1.257191
 C        -2.625328         0.034615        -1.419057
 C        -2.284280        -1.054390        -2.436418
 C        -2.007685        -1.285529        -1.007553
 C        -0.669849        -1.254779        -0.407227
 C        -0.037773         0.010519         0.003227
 O         1.202434        -0.036361         0.328315
 C        -0.805589         1.296832        -0.096269
 C        -1.789812         1.295570        -1.286794
 H        -4.184657         0.657273        -0.473677
 H        -3.192802        -1.570064        -2.950015
 H        -1.508961        -0.652840        -3.069416
 H        -2.668305        -1.939110        -0.426709
 H        -0.733517        -1.663169         0.589760
 H         0.161771        -1.920250        -0.774556
 H        -1.361771         1.531396         0.798299
 H        -0.007625         2.114145        -0.198400
 H        -2.436370         2.191290        -1.383725
 H        -1.192606         1.375390        -2.238357
