19
Iteration:  3234charge 0 multiplicity 1
 O        -3.973901         0.117154        -1.643998
 C        -2.571162         0.072284        -1.426835
 C        -1.924202        -0.947684        -2.349674
 C        -2.005916        -1.224565        -0.808145
 C        -0.934895        -1.281063         0.075738
 C        -0.006877        -0.055864        -0.055735
 O         1.130343        -0.186275        -0.396844
 C        -0.837023         1.353634         0.177876
 C        -1.842687         1.466173        -0.993414
 H        -4.433287         0.022212        -0.828936
 H        -2.424175        -1.653029        -3.025461
 H        -0.996532        -0.771608        -2.842624
 H        -2.767846        -1.994813        -0.639732
 H        -1.356000        -1.309523         1.097987
 H        -0.247516        -2.151257        -0.087693
 H        -1.304955         1.368986         1.160720
 H        -0.132882         2.233459         0.130388
 H        -2.610199         2.159147        -0.719124
 H        -1.317725         1.879987        -1.853946
