19
Iteration:  1466
 O        -3.982271         0.092461        -1.678146
 C        -2.632638         0.107387        -1.421655
 C        -1.987451        -0.856741        -2.409752
 C        -2.083697        -1.216842        -0.858095
 C        -0.945032        -1.275483         0.067938
 C         0.032891        -0.061523        -0.061127
 O         1.240426        -0.230419        -0.109791
 C        -0.619440         1.288064        -0.012465
 C        -1.986209         1.413392        -1.000671
 H        -4.510041         0.317654        -0.835835
 H        -2.796417        -1.375200        -2.869356
 H        -1.040078        -0.584497        -2.915623
 H        -2.816869        -2.004096        -0.793559
 H        -1.297110        -1.213442         1.145487
 H        -0.289056        -2.151607         0.111942
 H        -1.004062         1.522121         0.977799
 H         0.208368         2.061477        -0.202137
 H        -2.725934         2.118794        -0.570300
 H        -1.756969         2.002274        -1.910121
