19
Iteration:  1699
 O        -3.910751         0.508807        -1.381832
 C        -2.555910        -0.004946        -1.467724
 C        -2.045650        -1.038502        -2.340667
 C        -2.104635        -1.268854        -0.814720
 C        -0.762360        -1.415956        -0.076134
 C        -0.062394        -0.032394         0.012092
 O         1.140407         0.043132        -0.105850
 C        -0.991263         1.212618         0.053374
 C        -1.697119         1.226704        -1.287290
 H        -4.562107         0.049355        -1.933511
 H        -2.657742        -1.749135        -3.003277
 H        -1.096583        -0.652139        -2.791421
 H        -2.868775        -1.903952        -0.386749
 H        -0.818893        -1.991428         0.861110
 H        -0.172441        -2.008523        -0.791022
 H        -1.757858         1.028066         0.957590
 H        -0.332881         2.014022         0.495796
 H        -2.376074         2.164125        -1.246350
 H        -0.959172         1.366736        -2.105941
