19
Iteration:  4894
 O        -4.033883         0.146793        -1.072179
 C        -2.641487         0.062511        -1.327806
 C        -2.203164        -0.650397        -2.564996
 C        -2.004749        -1.323175        -1.170214
 C        -0.612379        -1.415588        -0.440225
 C         0.092575        -0.106252        -0.205147
 O         0.816670         0.029297         0.826572
 C        -0.398052         1.218530        -0.843884
 C        -1.934534         1.253344        -0.817801
 H        -4.353408         1.014249        -1.546018
 H        -3.031641        -1.122643        -3.225496
 H        -1.271191        -0.348399        -3.019131
 H        -2.701622        -2.186889        -0.965715
 H        -0.633718        -2.005259         0.511503
 H        -0.023674        -1.982951        -1.069695
 H        -0.038024         2.050999        -0.290295
 H        -0.011258         1.133450        -1.829384
 H        -2.286422         1.203181         0.285809
 H        -2.325317         2.233956        -1.244796
