19
Iteration:  1034charge 0 multiplicity 1
 O        -4.011117         0.361197        -1.251220
 C        -2.614653         0.055694        -1.457891
 C        -2.486575        -1.065961        -2.449557
 C        -2.114621        -1.283175        -0.907667
 C        -0.626186        -1.233405        -0.543276
 C        -0.009864        -0.020110         0.083553
 O         1.121343         0.032056         0.565525
 C        -0.796734         1.273741        -0.144266
 C        -1.525125         1.137132        -1.485336
 H        -4.060797         0.442921        -0.175205
 H        -3.328454        -1.615369        -2.743005
 H        -1.492032        -1.079590        -3.071575
 H        -2.781804        -2.002861        -0.403338
 H        -0.305621        -2.118311         0.039478
 H         0.030338        -1.588101        -1.332794
 H        -1.390930         1.120320         0.770255
 H        -0.336595         2.235467        -0.163861
 H        -1.968885         2.121411        -1.732845
 H        -0.615042         1.112680        -2.143149
