19
Iteration:   339
 O        -3.982907         0.391975        -1.621981
 C        -2.693282        -0.022013        -1.402112
 C        -2.074672        -1.122079        -2.272973
 C        -2.136753        -1.393853        -0.736327
 C        -0.845423        -1.264281         0.026054
 C         0.015818         0.030857         0.003465
 O         1.224633        -0.034821        -0.195437
 C        -0.761130         1.296565         0.004735
 C        -1.834219         1.241061        -1.155925
 H        -4.065576         1.478980        -1.508645
 H        -2.385068        -1.786118        -3.078154
 H        -1.065385        -0.815657        -2.713627
 H        -2.973649        -2.049232        -0.401831
 H        -0.882903        -1.616971         1.080403
 H        -0.175956        -2.039252        -0.360728
 H        -1.318626         1.456746         0.994921
 H         0.037738         2.016506        -0.204430
 H        -2.455598         2.180097        -1.136255
 H        -1.194393         1.540197        -2.004682
