19
Iteration:  2195
 O        -3.991866         0.034250        -1.321530
 C        -2.551295         0.095453        -1.418591
 C        -2.058768        -0.947479        -2.445526
 C        -2.142974        -1.289465        -0.952106
 C        -0.900107        -1.227519        -0.016505
 C        -0.010048        -0.009222        -0.038010
 O         1.243855        -0.164275         0.055898
 C        -0.753088         1.343651        -0.070323
 C        -1.814677         1.402568        -1.294984
 H        -4.499345         0.891121        -1.755948
 H        -2.834642        -1.336096        -3.061389
 H        -0.924886        -0.825512        -2.790007
 H        -2.952222        -1.957937        -0.709320
 H        -1.229216        -1.217009         1.076977
 H        -0.321877        -2.178468        -0.022197
 H        -1.361812         1.495291         0.971521
 H         0.047295         2.166439        -0.137293
 H        -2.570527         2.270772        -1.061682
 H        -1.171294         1.619610        -2.225824
