19
Iteration:  4637
 O        -4.117251         0.148602        -1.224212
 C        -2.696653         0.098553        -1.281829
 C        -2.153500        -0.684166        -2.519834
 C        -1.997529        -1.241297        -1.084979
 C        -0.617325        -1.368412        -0.407866
 C         0.083567        -0.084493        -0.002552
 O         1.016005        -0.010614         0.714453
 C        -0.522591         1.114418        -0.752699
 C        -1.973690         1.325287        -1.031532
 H        -4.523754        -0.261246        -0.389376
 H        -2.838608        -1.363686        -3.113065
 H        -1.243267        -0.335553        -2.949418
 H        -2.779687        -2.019124        -0.914537
 H        -0.600574        -1.922475         0.491057
 H         0.099369        -1.750287        -1.162571
 H        -0.249347         1.986344        -0.114347
 H         0.116097         1.095066        -1.623555
 H        -2.247710         1.654707        -0.041666
 H        -2.153186         2.069884        -1.823917
