19
Iteration:  4355
 O        -4.016853         0.238218        -1.728742
 C        -2.644733         0.055889        -1.400593
 C        -1.798313        -0.878265        -2.247258
 C        -1.990952        -1.408687        -0.857092
 C        -0.853126        -1.222418         0.190860
 C        -0.039364        -0.031919        -0.076750
 O         1.182125        -0.125552        -0.563471
 C        -0.805841         1.242671         0.182731
 C        -1.977512         1.336813        -0.917472
 H        -4.375036         0.521666        -0.901815
 H        -2.364365        -1.314908        -3.123377
 H        -0.681337        -0.665219        -2.482956
 H        -2.822199        -2.154332        -0.718209
 H        -1.356442        -1.066343         1.133088
 H        -0.281354        -2.110122         0.271241
 H        -1.342282         1.080286         1.148201
 H        -0.151666         2.109182         0.304811
 H        -2.852922         1.972094        -0.500729
 H        -1.657646         1.967435        -1.782582
