19
Iteration:   398
 O        -3.890508         0.302562        -1.225850
 C        -2.523200         0.112859        -1.607478
 C        -2.148754        -1.126140        -2.488737
 C        -2.060793        -1.170589        -0.862779
 C        -0.868397        -1.293327         0.081231
 C         0.003450        -0.015957        -0.023731
 O         1.221323        -0.072686        -0.027731
 C        -0.954126         1.188247        -0.041831
 C        -1.690819         1.315863        -1.319360
 H        -4.474769         0.098500        -1.841646
 H        -3.119286        -1.536136        -2.890363
 H        -1.295516        -1.121377        -3.081366
 H        -2.927882        -1.624716        -0.391596
 H        -1.223766        -1.033777         1.055832
 H        -0.252530        -2.207581         0.027196
 H        -1.641664         1.187730         0.810646
 H        -0.389393         2.153463         0.095792
 H        -2.531769         2.037474        -1.247239
 H        -1.073974         1.516184        -2.126272
