19
Iteration:  3381
 O        -4.097441         0.285295        -1.336309
 C        -2.716224         0.067107        -1.488532
 C        -2.159361        -1.011516        -2.443319
 C        -2.031934        -1.326167        -0.995953
 C        -0.651062        -1.360856        -0.100934
 C         0.015518        -0.046778         0.047221
 O         1.267296         0.008699         0.135161
 C        -0.821442         1.244116        -0.039580
 C        -1.794288         1.316545        -1.314332
 H        -4.113245         0.822467        -0.447137
 H        -2.782880        -1.536005        -3.189499
 H        -1.325601        -0.537835        -3.060150
 H        -2.718479        -2.101940        -0.591214
 H        -0.991431        -1.813483         0.898392
 H         0.082808        -2.007374        -0.606271
 H        -1.645488         1.388996         0.747568
 H        -0.134685         2.056870         0.121282
 H        -2.464578         2.097167        -1.150237
 H        -1.281084         1.614429        -2.277213
