19
Iteration:  1424
 O        -3.958256         0.239348        -1.628346
 C        -2.606385         0.039622        -1.375852
 C        -1.793106        -0.853662        -2.310954
 C        -2.109609        -1.290631        -0.876142
 C        -0.934784        -1.316370         0.126993
 C         0.004417        -0.189726        -0.019796
 O         1.211536        -0.195913        -0.249268
 C        -0.770448         1.381571        -0.083923
 C        -2.001807         1.391541        -1.012176
 H        -4.248999         0.521251        -0.641984
 H        -2.233872        -1.349073        -3.146320
 H        -0.815856        -0.390474        -2.588773
 H        -2.766673        -2.154400        -0.905450
 H        -1.464339        -1.162482         1.159691
 H        -0.716145        -2.377684        -0.050368
 H        -1.102387         1.381676         1.042016
 H        -0.060065         2.195750        -0.433739
 H        -2.895089         2.051502        -0.610907
 H        -1.764767         1.909208        -1.978052
