19
Iteration:  4276charge 0 multiplicity 1
 O        -4.009433         0.245243        -1.648022
 C        -2.581240         0.032404        -1.398228
 C        -1.891558        -0.903196        -2.314959
 C        -2.059361        -1.295357        -0.726280
 C        -0.771864        -1.310135         0.061789
 C        -0.064515         0.007011        -0.066039
 O         1.201045        -0.040706        -0.447035
 C        -0.933761         1.139433         0.215977
 C        -1.861088         1.300763        -1.107153
 H        -4.278067         0.593421        -0.856547
 H        -2.539295        -1.207789        -3.125125
 H        -0.923207        -0.585126        -2.690712
 H        -2.876626        -1.995940        -0.445951
 H        -1.160874        -1.174434         1.032916
 H        -0.057841        -2.156231        -0.037269
 H        -1.486946         0.958947         1.158900
 H        -0.322217         2.010392         0.352197
 H        -2.727633         2.111492        -0.868676
 H        -1.292579         1.794277        -1.807344
