19
Iteration:  1904
 O        -4.004828         0.315346        -1.317386
 C        -2.585879         0.058007        -1.484807
 C        -2.134961        -1.074789        -2.339018
 C        -2.131261        -1.248011        -0.877610
 C        -0.677713        -1.371183        -0.257518
 C        -0.037974        -0.132183        -0.052208
 O         1.179349        -0.013487         0.205864
 C        -0.789187         1.256716        -0.024618
 C        -1.811715         1.419029        -1.317624
 H        -4.442371         0.182134        -2.149614
 H        -2.960728        -1.575940        -2.991870
 H        -1.237889        -1.023644        -2.890932
 H        -2.993236        -1.743975        -0.381721
 H        -0.696663        -1.669532         0.848285
 H        -0.059326        -2.198298        -0.680180
 H        -1.373239         1.520806         0.895537
 H         0.087219         1.906053        -0.359923
 H        -2.515742         2.217368        -1.029461
 H        -1.138809         1.943937        -2.023081
