19
Iteration:   919charge 0 multiplicity 1
 O        -3.787372         0.329413        -0.859993
 C        -2.634606         0.064790        -1.493366
 C        -2.629171        -1.121290        -2.452539
 C        -1.934868        -1.261704        -1.100003
 C        -0.471429        -1.286720        -0.741934
 C        -0.035719         0.000872         0.070892
 O         0.765178        -0.017958         1.023482
 C        -0.659264         1.327026        -0.476449
 C        -1.596675         1.195309        -1.726005
 H        -3.824678         0.110269         0.146426
 H        -3.517081        -1.641948        -2.436456
 H        -1.963752        -0.980687        -3.303507
 H        -2.514546        -1.840731        -0.397646
 H        -0.257643        -2.068264        -0.018505
 H         0.149710        -1.459271        -1.649972
 H        -1.384643         1.511712         0.362948
 H        -0.021337         2.242893        -0.590121
 H        -2.197323         2.127797        -1.753419
 H        -1.143106         1.277365        -2.700831
