19
Iteration:  1806charge 0 multiplicity 1
 O        -4.005939         0.208134        -1.255930
 C        -2.546408         0.095645        -1.434739
 C        -2.115120        -1.020743        -2.397165
 C        -2.084084        -1.253947        -0.926782
 C        -0.779121        -1.388302        -0.177940
 C        -0.045046        -0.045840        -0.039613
 O         1.151464        -0.054970         0.248269
 C        -0.783627         1.294251        -0.179702
 C        -1.800756         1.352678        -1.335809
 H        -4.255837         1.108017        -1.494070
 H        -2.754452        -1.441585        -3.140439
 H        -1.126113        -0.796563        -2.900773
 H        -2.949048        -1.757300        -0.496459
 H        -1.029676        -1.742338         0.839150
 H        -0.070983        -2.172221        -0.509878
 H        -1.203975         1.388057         0.772272
 H         0.129253         1.912100        -0.347834
 H        -2.439253         2.261930        -1.209985
 H        -1.343567         1.655822        -2.275020
