19
Iteration:   718charge 0 multiplicity 1
 O        -3.814238         0.399040        -0.780772
 C        -2.610356         0.026958        -1.334691
 C        -2.491409        -1.155348        -2.474121
 C        -1.953625        -1.356421        -1.111820
 C        -0.449526        -1.252359        -0.815256
 C        -0.082035         0.079196         0.033131
 O         0.675210        -0.089312         0.995929
 C        -0.693657         1.373855        -0.511374
 C        -1.637620         1.212394        -1.719596
 H        -3.803034         0.830938         0.158642
 H        -3.418492        -1.639014        -2.728436
 H        -1.712618        -1.165030        -3.327379
 H        -2.468811        -2.042910        -0.494437
 H        -0.171545        -2.112306        -0.182366
 H         0.288633        -1.430606        -1.615512
 H        -1.189303         1.867733         0.370943
 H         0.256999         1.879005        -0.736952
 H        -2.085070         2.131769        -1.906909
 H        -1.035012         0.867901        -2.528143
