19
Iteration:  3795
 O        -3.882246         0.298642        -0.782628
 C        -2.556495        -0.050475        -1.359564
 C        -2.558721        -1.135629        -2.425625
 C        -1.833257        -1.228678        -1.076781
 C        -0.303994        -1.179867        -0.925287
 C         0.001631         0.027843        -0.073269
 O         0.496139        -0.112975         1.044432
 C        -0.603389         1.419727        -0.520865
 C        -1.717277         1.180173        -1.600825
 H        -3.925033         0.432929         0.125724
 H        -3.540083        -1.646817        -2.583349
 H        -1.824754        -1.052637        -3.188019
 H        -2.431730        -1.697090        -0.256821
 H         0.138058        -2.104143        -0.513576
 H         0.138851        -0.922557        -1.921810
 H        -0.891238         1.903832         0.412725
 H         0.214666         2.003384        -0.898002
 H        -2.338322         2.028654        -1.875311
 H        -1.088298         0.962177        -2.454752
