19
Iteration:  1365
 O        -3.947441         0.186375        -1.812700
 C        -2.558639         0.080459        -1.431446
 C        -1.875529        -0.951842        -2.234087
 C        -2.246498        -1.239770        -0.849497
 C        -0.929480        -1.218570         0.146186
 C         0.025866        -0.056725        -0.091205
 O         1.231272        -0.179267        -0.365415
 C        -0.676605         1.283286         0.095718
 C        -2.012247         1.376698        -0.915214
 H        -4.383493         0.363901        -1.020475
 H        -2.608045        -1.270292        -3.081997
 H        -0.835515        -0.900933        -2.456890
 H        -3.055310        -1.957536        -0.527841
 H        -1.196319        -1.271802         1.233210
 H        -0.497183        -2.244153         0.086956
 H        -0.926553         1.123700         1.179898
 H         0.049064         2.155470         0.215366
 H        -2.799217         1.954880        -0.458015
 H        -1.568806         1.923711        -1.798946
