19
Iteration:  4247
 O        -4.016157         0.190187        -1.537086
 C        -2.594455         0.068905        -1.420044
 C        -1.993631        -0.963292        -2.424680
 C        -2.036017        -1.284836        -0.896525
 C        -0.893022        -1.392609         0.086813
 C         0.012678         0.051840        -0.073123
 O         1.176429         0.061260        -0.271010
 C        -0.820271         1.186570         0.114070
 C        -1.834797         1.319197        -1.065844
 H        -4.250853         0.571773        -0.683676
 H        -2.847620        -1.577743        -2.954816
 H        -1.084916        -0.846331        -2.985053
 H        -2.857652        -1.987187        -0.606861
 H        -1.287155        -1.584743         1.168721
 H        -0.047928        -1.997350        -0.172610
 H        -1.231593         1.071080         1.168933
 H        -0.109768         2.007645         0.037849
 H        -2.480353         2.104715        -0.900955
 H        -1.016120         1.665564        -1.809778
