19
Iteration:  2474
 O        -3.999186         0.288684        -1.330811
 C        -2.606404         0.048144        -1.446716
 C        -2.126025        -0.995125        -2.428220
 C        -2.058030        -1.270461        -0.877702
 C        -0.764392        -1.434552        -0.147816
 C        -0.011375        -0.048605        -0.038240
 O         1.147314         0.046404         0.198229
 C        -0.704407         1.246694        -0.205988
 C        -1.817428         1.363459        -1.192705
 H        -4.368000        -0.235109        -2.035535
 H        -3.014862        -1.520617        -2.951457
 H        -1.247198        -0.858993        -3.021562
 H        -2.995770        -1.794098        -0.527503
 H        -0.945674        -1.663053         0.912471
 H        -0.117006        -2.186612        -0.599079
 H        -1.186607         1.353626         0.798968
 H         0.000038         2.135296        -0.238427
 H        -2.625271         2.065021        -0.856448
 H        -1.372267         1.712564        -2.100934
