19
Iteration:  3609
 O        -3.960346         0.283732        -1.124996
 C        -2.662896         0.033710        -1.425994
 C        -2.456416        -1.135232        -2.452907
 C        -2.083819        -1.242265        -0.952700
 C        -0.547041        -1.315168        -0.618513
 C         0.068445        -0.023810         0.014421
 O         1.082454         0.068419         0.660784
 C        -0.822370         1.306906        -0.190561
 C        -1.667216         1.279868        -1.504062
 H        -4.174375        -0.049269        -0.246422
 H        -3.362767        -1.534224        -2.876260
 H        -1.446011        -1.074854        -2.930903
 H        -2.777430        -1.949041        -0.505201
 H        -0.275059        -2.230793        -0.184434
 H         0.060369        -1.220189        -1.555079
 H        -1.493842         1.454865         0.721928
 H        -0.104695         2.116268        -0.194464
 H        -2.064569         2.208122        -1.739643
 H        -0.829204         1.082371        -2.269693
