19
Iteration:  3902charge 0 multiplicity 1
 O        -3.782299         0.391299        -0.785240
 C        -2.605311         0.015418        -1.462630
 C        -2.594651        -1.240804        -2.402008
 C        -1.845474        -1.308743        -1.109130
 C        -0.315950        -1.168099        -0.952902
 C        -0.018627        -0.004346        -0.006918
 O         0.589016        -0.019049         1.039449
 C        -0.714321         1.296966        -0.443684
 C        -1.681217         1.215437        -1.612637
 H        -3.801359         0.040280         0.064833
 H        -3.619403        -1.490412        -2.580660
 H        -1.968526        -1.286817        -3.319994
 H        -2.388676        -1.834785        -0.292533
 H         0.134406        -2.011119        -0.481560
 H         0.305557        -1.010527        -1.831136
 H        -1.152057         1.843982         0.396085
 H         0.174921         1.935058        -0.775392
 H        -2.554244         2.054552        -1.539295
 H        -1.307826         1.413934        -2.581295
