19
Iteration:  2586charge 0 multiplicity 1
 O        -3.964593         0.417940        -1.227393
 C        -2.606261         0.071506        -1.452242
 C        -2.183862        -1.100537        -2.379362
 C        -2.101011        -1.293842        -0.885179
 C        -0.696399        -1.351333        -0.282075
 C        -0.029718         0.016914        -0.080361
 O         1.183798         0.041224         0.121983
 C        -1.033063         1.235054         0.084975
 C        -1.607867         1.214349        -1.382418
 H        -4.365342         0.572818        -2.176475
 H        -2.797078        -1.676147        -3.043484
 H        -1.007195        -1.004913        -2.591345
 H        -2.731295        -2.005316        -0.368695
 H        -0.678611        -1.787110         0.715755
 H        -0.083047        -2.152755        -0.775001
 H        -1.885343         0.888581         0.706238
 H        -0.459828         2.167544         0.438416
 H        -2.128306         2.149670        -1.427208
 H        -0.837666         1.285613        -2.061027
