19
Iteration:  1702
 O        -3.877070         0.494694        -1.370752
 C        -2.576265         0.031743        -1.466942
 C        -2.037589        -1.032111        -2.367561
 C        -2.090848        -1.276959        -0.793580
 C        -0.799136        -1.412492        -0.091651
 C        -0.044004        -0.024996        -0.001083
 O         1.138758         0.046221        -0.096877
 C        -0.997125         1.228611         0.081198
 C        -1.707099         1.202130        -1.303701
 H        -4.573286         0.017458        -2.009426
 H        -2.797986        -1.772998        -2.929965
 H        -1.064358        -0.676793        -2.701842
 H        -2.919859        -1.882756        -0.411567
 H        -0.783312        -2.030980         0.878380
 H        -0.230653        -2.015794        -0.826725
 H        -1.646524         0.962647         0.995963
 H        -0.373052         2.026247         0.416863
 H        -2.408437         2.045194        -1.312135
 H        -0.923454         1.375922        -2.096482
