19
Iteration:  1390
 O        -3.985610         0.102189        -1.800923
 C        -2.617285         0.107136        -1.392907
 C        -1.870984        -0.833576        -2.219111
 C        -2.143604        -1.204396        -0.777288
 C        -0.912003        -1.278352         0.100008
 C        -0.019393        -0.113923        -0.067962
 O         1.171666        -0.218908        -0.317818
 C        -0.727375         1.270555        -0.036424
 C        -1.896079         1.474433        -0.924066
 H        -4.489150         0.124839        -1.013663
 H        -2.447936        -1.300037        -2.964891
 H        -0.828297        -0.483325        -2.466565
 H        -2.733466        -2.074146        -0.598318
 H        -1.223226        -1.403561         1.207319
 H        -0.479327        -2.273812        -0.063394
 H        -1.106935         1.456566         1.063637
 H         0.238697         1.853286         0.000870
 H        -2.657192         2.171801        -0.407545
 H        -1.572192         2.003225        -1.873386
