19
Iteration:  3299charge 0 multiplicity 1
 O        -4.021408         0.266441        -1.637622
 C        -2.605927         0.005402        -1.428905
 C        -2.074370        -1.013615        -2.380905
 C        -2.100631        -1.274802        -0.814683
 C        -0.760102        -1.258186        -0.035526
 C        -0.006842         0.034820        -0.062796
 O         1.224381        -0.034724        -0.190063
 C        -0.839155         1.191280         0.116449
 C        -1.794583         1.308949        -1.064620
 H        -4.311260         0.635256        -0.709950
 H        -2.748486        -1.683528        -3.013582
 H        -1.113373        -0.831805        -2.724975
 H        -2.821508        -1.930637        -0.327583
 H        -1.104775        -1.506100         0.954754
 H        -0.110642        -2.112075        -0.275627
 H        -1.410395         1.107985         0.981921
 H        -0.161601         2.077529         0.161465
 H        -2.580985         2.094696        -0.692988
 H        -1.265436         1.793086        -1.880230
