19
Iteration:  3504charge 0 multiplicity 1
 O        -3.970468         0.263610        -1.256495
 C        -2.601420         0.048016        -1.488972
 C        -2.431225        -1.060458        -2.456204
 C        -2.054942        -1.280977        -0.952705
 C        -0.601157        -1.217513        -0.509989
 C         0.042097         0.028880         0.006347
 O         1.187184        -0.001393         0.391512
 C        -0.924014         1.264606         0.023329
 C        -1.664957         1.210179        -1.394578
 H        -4.117075         0.206513        -0.223374
 H        -3.249781        -1.555393        -2.859746
 H        -1.510959        -1.263610        -3.012259
 H        -2.768462        -1.845065        -0.396574
 H        -0.601375        -1.629252         0.574311
 H         0.123357        -1.822609        -1.113403
 H        -1.739447         1.471980         0.772352
 H        -0.273411         2.178510         0.149804
 H        -2.147758         2.236784        -1.452326
 H        -0.918140         1.195712        -2.117910
