19
Iteration:  3009charge 0 multiplicity 1
 O        -4.061186         0.258983        -1.611023
 C        -2.637904         0.040504        -1.420075
 C        -2.007188        -0.894252        -2.335576
 C        -2.075404        -1.386879        -0.861270
 C        -0.808420        -1.271921        -0.020186
 C         0.019665        -0.054263        -0.080679
 O         1.284108        -0.122047        -0.054444
 C        -0.730924         1.299506        -0.066443
 C        -1.974118         1.300048        -1.027003
 H        -4.323042         0.841796        -0.928867
 H        -2.520759        -1.396788        -3.124715
 H        -0.915793        -0.538542        -2.647720
 H        -2.747545        -2.161303        -0.575057
 H        -1.116355        -1.428170         1.014686
 H        -0.174735        -2.115318        -0.265572
 H        -1.023311         1.539279         0.915206
 H        -0.080506         2.128347        -0.467162
 H        -2.824683         1.860068        -0.511009
 H        -1.828958         1.956075        -1.840344
