19
Iteration:  1753charge 0 multiplicity 1
 O        -3.978747         0.293493        -1.361541
 C        -2.571981         0.113171        -1.505864
 C        -2.253613        -1.093184        -2.505003
 C        -2.108104        -1.209728        -0.886728
 C        -0.736055        -1.329659        -0.079256
 C         0.018458        -0.033982         0.080933
 O         1.285210         0.014017         0.046925
 C        -0.926990         1.236333         0.044257
 C        -1.711395         1.269383        -1.268641
 H        -4.380690         0.582905        -2.228245
 H        -3.178594        -1.586197        -2.636924
 H        -1.390111        -1.104246        -3.110786
 H        -2.855020        -1.933562        -0.577259
 H        -0.993823        -1.688552         0.895446
 H        -0.141677        -2.120170        -0.531789
 H        -1.615854         1.159618         0.907314
 H        -0.194294         2.026330         0.249043
 H        -2.264295         2.257755        -1.228429
 H        -0.969075         1.342127        -2.055191
