19
Iteration:  3982
 O        -3.962161         0.319299        -0.944081
 C        -2.645521        -0.038337        -1.453348
 C        -2.553951        -1.126912        -2.494314
 C        -1.921827        -1.339740        -1.093503
 C        -0.417871        -1.238645        -0.798071
 C         0.002171         0.043789         0.065642
 O         0.944066         0.020459         0.899100
 C        -0.727951         1.287724        -0.347572
 C        -1.707153         1.229969        -1.524545
 H        -3.942199         0.804312        -0.161586
 H        -3.588208        -1.520241        -2.709724
 H        -1.978247        -1.067185        -3.362698
 H        -2.412145        -1.889033        -0.307872
 H        -0.167945        -1.971239         0.027035
 H         0.268119        -1.279519        -1.628626
 H        -1.292241         1.667546         0.508163
 H        -0.034944         2.056204        -0.547554
 H        -2.322011         2.162020        -1.608278
 H        -1.146057         1.063824        -2.502188
