19
Iteration:  4118
 O        -4.032864         0.192721        -1.140579
 C        -2.597906         0.088291        -1.472710
 C        -2.268165        -0.993857        -2.471184
 C        -2.080043        -1.253651        -0.928248
 C        -0.640923        -1.381676        -0.406625
 C        -0.035695        -0.012051        -0.039146
 O         1.159798         0.016678         0.419685
 C        -0.836181         1.290744        -0.152815
 C        -1.711839         1.303769        -1.409453
 H        -4.052932         0.553100        -0.182228
 H        -3.025534        -1.671175        -2.926845
 H        -1.291605        -0.818737        -3.090425
 H        -2.806152        -1.915381        -0.425447
 H        -0.275793        -2.020072         0.375278
 H         0.029983        -1.766578        -1.249616
 H        -1.561652         1.228309         0.638339
 H        -0.222792         2.220055         0.009654
 H        -2.358553         2.150042        -1.525701
 H        -0.985843         1.470466        -2.309409
