19
Iteration:  2542
 O        -4.000857         0.171347        -1.267356
 C        -2.547204         0.089416        -1.522870
 C        -2.273854        -1.102870        -2.496478
 C        -2.101574        -1.297847        -0.971180
 C        -0.752732        -1.431823        -0.153533
 C        -0.036806        -0.019547         0.078575
 O         1.205891         0.086257         0.126955
 C        -0.812955         1.315534         0.008427
 C        -1.633990         1.348979        -1.323347
 H        -4.227148         1.181186        -1.367889
 H        -3.173065        -1.494126        -2.968345
 H        -1.343811        -0.765739        -3.111681
 H        -3.006513        -1.735543        -0.506720
 H        -1.210055        -1.624488         0.806453
 H        -0.060625        -2.305320        -0.244615
 H        -1.551914         1.322221         0.857110
 H        -0.045020         2.187523         0.086223
 H        -2.246415         2.234665        -1.361347
 H        -1.064665         1.329468        -2.171977
