19
Iteration:  4081charge 0 multiplicity 1
 O        -3.979368         0.410150        -1.133837
 C        -2.629035        -0.043804        -1.533378
 C        -2.467209        -1.109283        -2.490593
 C        -1.974818        -1.312830        -0.991061
 C        -0.508125        -1.340280        -0.521141
 C        -0.005423         0.009021        -0.041896
 O         1.135733         0.093546         0.546508
 C        -0.888518         1.284776        -0.091350
 C        -1.640050         1.241415        -1.381822
 H        -4.084648         0.145315        -0.224535
 H        -3.373499        -1.738168        -2.652405
 H        -1.928930        -0.940185        -3.445430
 H        -2.806858        -1.845246        -0.546435
 H        -0.385621        -2.014971         0.407471
 H         0.137517        -1.573808        -1.342754
 H        -1.581093         1.167358         0.784348
 H        -0.326851         2.155643         0.087337
 H        -2.399077         2.042565        -1.519961
 H        -0.955030         1.084478        -2.315800
