19
Iteration:  3328
 O        -4.032100         0.181110        -1.600771
 C        -2.568933         0.088585        -1.425665
 C        -2.141104        -1.064445        -2.364631
 C        -2.101325        -1.222427        -0.851254
 C        -0.754995        -1.380843        -0.141100
 C         0.049915        -0.002745         0.022069
 O         1.266119        -0.019542        -0.083178
 C        -0.838647         1.284541         0.066375
 C        -1.831813         1.448385        -1.098850
 H        -4.201303         0.306230        -0.601727
 H        -3.015858        -1.450479        -2.854995
 H        -1.270195        -1.322554        -3.005487
 H        -2.804074        -1.846463        -0.252059
 H        -1.170503        -1.922346         0.730737
 H        -0.129309        -2.127899        -0.632655
 H        -1.535867         1.169967         0.996231
 H        -0.149945         2.112167         0.145823
 H        -2.571226         2.273928        -0.933522
 H        -1.209934         1.692113        -1.946110
