19
Iteration:   514
 O        -3.994091         0.443044        -1.170328
 C        -2.578769         0.064815        -1.509240
 C        -2.352434        -1.140557        -2.420417
 C        -2.087659        -1.348952        -0.881714
 C        -0.643044        -1.329945        -0.360200
 C        -0.013685        -0.007102         0.025821
 O         1.155733         0.044638         0.362011
 C        -0.803115         1.236709        -0.102885
 C        -1.639651         1.237113        -1.436889
 H        -4.570113         0.392827        -1.987846
 H        -3.307798        -1.636516        -2.751868
 H        -1.528399        -1.128709        -3.088381
 H        -2.878537        -1.860320        -0.422014
 H        -0.770765        -2.015160         0.488397
 H         0.152789        -1.646430        -1.045147
 H        -1.516385         1.212715         0.712644
 H        -0.162642         2.103908         0.055930
 H        -2.177830         2.174347        -1.254988
 H        -0.966435         1.342287        -2.325009
