19
Iteration:  3597
 O        -4.007957         0.252712        -1.132990
 C        -2.599827         0.064198        -1.534175
 C        -2.418925        -1.048052        -2.448664
 C        -2.034152        -1.239321        -0.965139
 C        -0.597417        -1.328384        -0.569348
 C        -0.015650         0.028313         0.113626
 O         1.153108         0.039410         0.611992
 C        -0.802555         1.320461        -0.176357
 C        -1.674955         1.185891        -1.479964
 H        -4.008319         0.067701        -0.206122
 H        -3.334105        -1.644631        -2.739517
 H        -1.759788        -1.108338        -3.344739
 H        -2.695923        -1.642677        -0.183967
 H        -0.261291        -2.245764        -0.174908
 H        -0.104017        -1.316920        -1.577350
 H        -1.470987         1.416914         0.761122
 H        -0.093716         2.164765        -0.166355
 H        -2.304295         2.049991        -1.649183
 H        -1.132543         1.072550        -2.435427
