19
Iteration:  3333
 O        -4.036469         0.180668        -1.570142
 C        -2.567069         0.098788        -1.402533
 C        -2.145376        -1.050111        -2.360727
 C        -2.114805        -1.260911        -0.846615
 C        -0.750238        -1.374221        -0.164681
 C         0.032448         0.019583        -0.019992
 O         1.228222        -0.005137        -0.042758
 C        -0.852634         1.215958         0.039908
 C        -1.762219         1.449639        -1.121556
 H        -4.330867         0.304007        -0.647420
 H        -2.930960        -1.559249        -2.995244
 H        -1.186980        -1.203463        -2.858561
 H        -2.928248        -1.747709        -0.317429
 H        -0.987808        -1.741618         0.852536
 H        -0.054769        -2.050734        -0.700529
 H        -1.336711         1.144278         0.968055
 H        -0.143257         2.070227         0.179629
 H        -2.538224         2.264119        -0.902216
 H        -1.271327         1.806680        -2.069664
