19
Iteration:  3647
 O        -3.858334         0.435660        -1.046418
 C        -2.600281        -0.001134        -1.454075
 C        -2.535641        -1.180954        -2.450313
 C        -1.935508        -1.267498        -1.022097
 C        -0.387514        -1.281677        -0.662317
 C         0.007047        -0.010458         0.041733
 O         0.978656        -0.023870         0.748958
 C        -0.916866         1.300495        -0.278385
 C        -1.732217         1.279551        -1.520439
 H        -4.200431         0.194366        -0.095635
 H        -3.454262        -1.828053        -2.653524
 H        -1.981514        -1.040398        -3.337620
 H        -2.417947        -2.026639        -0.385359
 H        -0.068723        -2.122237         0.058331
 H         0.144214        -1.382979        -1.612248
 H        -1.440815         1.393313         0.661454
 H        -0.296820         2.246442        -0.324437
 H        -2.533555         2.089857        -1.792016
 H        -1.027468         1.115602        -2.377225
