19
Iteration:  3923
 O        -3.823453         0.296584        -0.869641
 C        -2.610962         0.028430        -1.461773
 C        -2.607308        -1.182495        -2.447680
 C        -1.835661        -1.282558        -1.002422
 C        -0.397197        -1.220136        -0.833813
 C        -0.033098         0.008365        -0.042007
 O         0.662264        -0.102418         0.988472
 C        -0.643795         1.435048        -0.469243
 C        -1.708839         1.296931        -1.587520
 H        -3.854001        -0.194769         0.054320
 H        -3.226379        -2.039622        -2.273509
 H        -2.030579        -1.132377        -3.420267
 H        -2.513552        -1.894629        -0.371746
 H         0.075080        -2.036930        -0.363692
 H         0.154915        -1.148834        -1.784021
 H        -1.101260         1.763558         0.497136
 H         0.195622         2.213755        -0.702811
 H        -2.403345         2.286534        -1.615644
 H        -1.252596         1.354473        -2.545022
