19
Iteration:  2271charge 0 multiplicity 1
 O        -3.952274         0.360789        -1.624870
 C        -2.534580         0.020177        -1.439451
 C        -2.044677        -1.108708        -2.294291
 C        -2.136730        -1.186192        -0.698949
 C        -0.799818        -1.264865        -0.115718
 C        -0.026346        -0.036018        -0.061505
 O         1.228928        -0.019922        -0.215186
 C        -0.937191         1.185727         0.177384
 C        -1.793314         1.371650        -1.081208
 H        -4.409157        -0.313665        -2.016625
 H        -2.803424        -1.704096        -2.827170
 H        -1.118179        -1.346872        -2.854561
 H        -2.852658        -1.869032        -0.271532
 H        -0.921276        -1.756781         0.874323
 H        -0.257535        -2.165213        -0.482048
 H        -1.479151         1.082126         1.117916
 H        -0.269346         2.070601         0.328304
 H        -2.401050         2.221560        -1.157557
 H        -1.201349         1.837121        -1.915234
