19
Iteration:  4383charge 0 multiplicity 1
 O        -3.962768         0.104208        -1.672942
 C        -2.629171         0.054940        -1.331475
 C        -1.751442        -0.755297        -2.282504
 C        -2.009037        -1.218644        -0.801173
 C        -0.922913        -1.286765         0.149907
 C        -0.008100        -0.134138        -0.103259
 O         1.099223        -0.091420        -0.450564
 C        -0.749732         1.246908         0.037419
 C        -2.006581         1.348648        -0.925795
 H        -4.498443         0.459579        -1.022737
 H        -2.374143        -1.342520        -2.985518
 H        -0.824105        -0.407959        -2.596164
 H        -2.807699        -1.952664        -0.926236
 H        -1.296478        -1.459555         1.219935
 H        -0.411770        -2.333244        -0.005154
 H        -1.129710         1.394473         1.065704
 H         0.096168         1.890476        -0.213580
 H        -2.822665         1.894847        -0.406108
 H        -1.750600         1.856481        -1.895769
