19
Iteration:  1191charge 0 multiplicity 1
 O        -4.048867         0.208090        -1.542785
 C        -2.561148         0.110095        -1.551623
 C        -2.170052        -1.008641        -2.330524
 C        -2.074693        -1.118978        -0.811675
 C        -0.699359        -1.392345        -0.106044
 C        -0.005152        -0.050304        -0.005519
 O         1.244112        -0.074357         0.014805
 C        -0.886553         1.174708         0.013724
 C        -1.778835         1.385300        -1.224819
 H        -4.372601         0.669150        -0.771594
 H        -2.874949        -1.504961        -2.929677
 H        -1.210620        -0.878330        -2.921332
 H        -2.969644        -1.534132        -0.286219
 H        -1.093906        -1.369669         0.900432
 H        -0.077116        -2.159514        -0.401535
 H        -1.512454         0.962653         0.853758
 H        -0.075624         1.806416         0.416942
 H        -2.416583         2.253993        -1.112473
 H        -0.971639         1.691190        -1.915477
