19
Iteration:  1454
 O        -4.032606         0.129458        -1.639603
 C        -2.577898         0.048029        -1.424957
 C        -1.973092        -0.900949        -2.413313
 C        -2.049123        -1.201255        -0.937971
 C        -0.933531        -1.239132         0.151821
 C        -0.015275        -0.110464        -0.087128
 O         1.164586        -0.201448        -0.133925
 C        -0.674921         1.340356        -0.071604
 C        -1.853630         1.383551        -0.915361
 H        -4.409718         0.457034        -0.907146
 H        -2.497324        -1.440722        -3.131188
 H        -1.040756        -0.510859        -2.951561
 H        -2.786822        -1.922717        -0.686264
 H        -1.384910        -1.100988         1.166499
 H        -0.459094        -2.203803        -0.043229
 H        -0.867551         1.248735         0.975893
 H        -0.118318         2.291893        -0.293151
 H        -2.652163         1.842848        -0.363688
 H        -1.525870         1.915773        -1.824578
