19
Iteration:   831
 O        -3.881287         0.316560        -0.850201
 C        -2.610639         0.051795        -1.418253
 C        -2.660047        -1.196935        -2.282813
 C        -1.853669        -1.241830        -1.088955
 C        -0.345396        -1.137851        -1.010040
 C        -0.040625         0.013448         0.029413
 O         0.485049        -0.091708         1.130700
 C        -0.568943         1.286465        -0.517142
 C        -1.526708         1.218888        -1.727202
 H        -3.814733         0.763812        -0.036398
 H        -3.668363        -1.640838        -2.155368
 H        -2.365598        -1.424435        -3.276691
 H        -2.153797        -1.956662        -0.275394
 H         0.081967        -2.087090        -0.609968
 H         0.143062        -0.682474        -1.891186
 H        -0.734332         1.774504         0.471684
 H         0.428145         1.802186        -0.780469
 H        -2.024270         2.182529        -1.919784
 H        -0.867751         1.020286        -2.585806
