19
Iteration:   665
 O        -4.014269         0.347958        -1.126510
 C        -2.631379         0.064941        -1.530680
 C        -2.601923        -1.177508        -2.335987
 C        -1.950064        -1.272540        -0.976313
 C        -0.445039        -1.224452        -0.751241
 C         0.005874        -0.015315         0.066488
 O         0.919484        -0.048369         0.912113
 C        -0.641795         1.324996        -0.371277
 C        -1.610473         1.214047        -1.575489
 H        -4.153421         0.458061        -0.064364
 H        -3.604838        -1.616314        -2.307478
 H        -2.208023        -1.362233        -3.381371
 H        -2.425059        -1.811746        -0.195597
 H        -0.146233        -2.181633        -0.256627
 H         0.194305        -1.137160        -1.667961
 H        -1.134464         1.625065         0.607364
 H         0.217036         2.015675        -0.451273
 H        -2.240625         2.074980        -1.425857
 H        -1.056732         1.451823        -2.501122
