19
Iteration:  2253
 O        -3.931845         0.357790        -1.579967
 C        -2.588247         0.070766        -1.437819
 C        -2.117377        -1.044438        -2.220300
 C        -2.161914        -1.303869        -0.784552
 C        -0.787598        -1.385770        -0.045856
 C        -0.009491        -0.043046        -0.065122
 O         1.224503         0.067029        -0.140438
 C        -0.828086         1.192940         0.026615
 C        -1.772166         1.316107        -1.133486
 H        -4.128842        -0.232140        -2.233487
 H        -2.811223        -1.425418        -3.069541
 H        -1.194662        -0.865911        -2.677313
 H        -3.143238        -1.747456        -0.536399
 H        -0.848659        -1.459959         1.068025
 H        -0.164769        -2.247281        -0.377439
 H        -1.517686         0.803961         0.940765
 H        -0.363103         2.117255         0.384501
 H        -2.543165         2.198164        -0.810756
 H        -1.344494         1.715882        -2.042751
