19
Iteration:  3712charge 0 multiplicity 1
 O        -3.893652         0.345048        -0.866525
 C        -2.583839         0.010911        -1.402495
 C        -2.563601        -1.140548        -2.392345
 C        -1.863793        -1.316402        -1.096182
 C        -0.325464        -1.253625        -0.838449
 C        -0.110103         0.014021         0.026323
 O         0.770546        -0.062880         0.924016
 C        -0.776384         1.419395        -0.469419
 C        -1.672380         1.181652        -1.588139
 H        -3.682455         0.783829        -0.020911
 H        -3.526928        -1.627708        -2.602122
 H        -2.021125        -1.112551        -3.323104
 H        -2.487523        -1.987929        -0.489245
 H         0.042120        -2.147785        -0.209110
 H         0.432112        -1.159038        -1.604216
 H        -1.485418         1.477762         0.387714
 H         0.006395         2.240545        -0.413044
 H        -2.160496         2.203627        -1.758087
 H        -0.977703         1.107579        -2.517456
