19
Iteration:  1484charge 0 multiplicity 1
 O        -4.071671         0.153504        -1.696315
 C        -2.618010         0.115164        -1.373194
 C        -1.944804        -0.860863        -2.306502
 C        -2.158716        -1.248552        -0.892832
 C        -0.858880        -1.287146         0.021696
 C         0.063706        -0.120749        -0.005140
 O         1.290197        -0.219575        -0.076254
 C        -0.745833         1.274843        -0.142752
 C        -1.938051         1.440853        -1.018826
 H        -4.607457         0.136395        -0.841217
 H        -2.509923        -1.139643        -3.159703
 H        -0.822393        -0.635928        -2.371470
 H        -2.879518        -1.901960        -0.441378
 H        -1.131560        -1.386402         1.062878
 H        -0.262093        -2.192757        -0.206493
 H        -0.904385         1.502594         0.902385
 H        -0.185464         2.166850        -0.353050
 H        -2.670636         2.021923        -0.499051
 H        -1.675783         1.990640        -1.939699
