19
Iteration:   354charge 0 multiplicity 1
 O        -4.037831         0.315784        -1.493422
 C        -2.608053        -0.020755        -1.409786
 C        -1.984831        -1.026342        -2.292427
 C        -2.189584        -1.277746        -0.748469
 C        -0.805678        -1.336550        -0.012250
 C        -0.077560        -0.024748        -0.056052
 O         1.131339        -0.034148        -0.152805
 C        -0.788774         1.350562         0.005947
 C        -1.689264         1.200979        -1.254730
 H        -4.023918         1.279864        -1.500662
 H        -2.624420        -1.565080        -2.986795
 H        -0.945257        -0.787612        -2.416854
 H        -2.895474        -1.986437        -0.399237
 H        -1.015287        -1.462083         1.039534
 H        -0.111504        -2.126431        -0.391893
 H        -1.226509         1.608607         0.963612
 H        -0.063530         2.179280        -0.194006
 H        -2.376486         2.095984        -1.277190
 H        -1.059731         1.146541        -2.090369
