19
Iteration:  1006charge 0 multiplicity 1
 O        -3.972411         0.377369        -1.200641
 C        -2.554125         0.064787        -1.510571
 C        -2.546245        -1.233152        -2.390982
 C        -1.985477        -1.107646        -0.906563
 C        -0.477940        -1.294203        -0.644021
 C         0.025799        -0.075154         0.048788
 O         1.056634        -0.046814         0.685934
 C        -0.883966         1.252506        -0.143109
 C        -1.643821         1.284443        -1.589471
 H        -3.937694         0.836229        -0.265071
 H        -3.523064        -1.724300        -2.566498
 H        -1.832320        -1.342742        -3.188004
 H        -2.619554        -1.571908        -0.168450
 H        -0.264928        -2.167185         0.006678
 H         0.145209        -1.718217        -1.455865
 H        -1.618153         1.173696         0.696115
 H        -0.332548         2.214192        -0.049894
 H        -2.275716         2.174144        -1.606690
 H        -0.865037         1.420223        -2.314088
