19
Iteration:  2539charge 0 multiplicity 1
 O        -4.024369         0.163604        -1.266821
 C        -2.521318         0.083273        -1.505926
 C        -2.249223        -1.075063        -2.479434
 C        -2.110782        -1.311046        -0.988349
 C        -0.760612        -1.385923        -0.173810
 C        -0.023065        -0.022174         0.082992
 O         1.204337         0.074716         0.132878
 C        -0.811690         1.312236         0.004886
 C        -1.654283         1.339829        -1.330334
 H        -4.219611         1.068344        -1.362149
 H        -3.183261        -1.536795        -2.966376
 H        -1.442492        -0.770881        -3.078157
 H        -2.982603        -1.762675        -0.425302
 H        -1.205716        -1.627600         0.834750
 H        -0.159600        -2.282525        -0.186970
 H        -1.510426         1.264882         0.816051
 H        -0.013857         2.068081         0.069440
 H        -2.194950         2.375622        -1.407009
 H        -0.954181         1.371327        -2.265564
