19
Iteration:   631
 O        -4.016684         0.435742        -1.141192
 C        -2.708002        -0.004241        -1.434527
 C        -2.417006        -1.128409        -2.351485
 C        -2.046753        -1.342542        -0.936436
 C        -0.524762        -1.225226        -0.747530
 C         0.041217         0.067338         0.086905
 O         0.998624        -0.072627         0.769156
 C        -0.746651         1.345309        -0.259780
 C        -1.582668         1.078297        -1.545476
 H        -3.939742         1.196057        -0.423114
 H        -3.469973        -1.569113        -2.559495
 H        -1.629472        -1.078746        -3.128560
 H        -2.578655        -2.011356        -0.273994
 H        -0.252768        -2.207665        -0.315974
 H        -0.019320        -1.062862        -1.722742
 H        -1.440097         1.711289         0.612457
 H        -0.095069         2.211299        -0.482790
 H        -2.120260         1.946618        -1.834995
 H        -0.921871         0.845976        -2.422843
