19
Iteration:  2143
 O        -4.080350         0.274715        -1.286802
 C        -2.674957        -0.004824        -1.454866
 C        -2.007897        -0.950036        -2.401494
 C        -2.050947        -1.277846        -0.986697
 C        -0.854457        -1.321185        -0.056518
 C         0.098665        -0.020244        -0.021293
 O         1.267979        -0.132587         0.214116
 C        -0.741154         1.353543        -0.240042
 C        -1.955811         1.298689        -1.253813
 H        -4.244894         0.710465        -2.144883
 H        -2.588154        -1.590566        -2.978132
 H        -1.027941        -0.446986        -2.633302
 H        -2.710513        -2.109667        -0.747237
 H        -1.164854        -1.575540         0.961753
 H        -0.307599        -2.216937        -0.418333
 H        -1.171501         1.508388         0.714206
 H        -0.060236         2.173562        -0.546104
 H        -2.628970         2.092159        -0.759677
 H        -1.421295         1.517667        -2.097008
