19
Iteration:   395
 O        -3.883780         0.264350        -1.210941
 C        -2.530562         0.114071        -1.621765
 C        -2.165591        -1.108969        -2.480035
 C        -2.062465        -1.158235        -0.833731
 C        -0.846491        -1.316731         0.089667
 C        -0.002445        -0.013576        -0.018173
 O         1.209033        -0.078788        -0.041745
 C        -0.940673         1.197921        -0.041660
 C        -1.687717         1.321750        -1.336338
 H        -4.552624         0.226798        -2.083184
 H        -3.047938        -1.505864        -2.979547
 H        -1.214343        -1.144566        -3.088025
 H        -2.951249        -1.541054        -0.413186
 H        -1.202281        -0.968129         1.085882
 H        -0.319654        -2.299894         0.059336
 H        -1.753417         1.165367         0.797805
 H        -0.374542         2.154370         0.157114
 H        -2.502303         2.115212        -1.240800
 H        -1.003684         1.669764        -2.144666
