19
Iteration:   992charge 0 multiplicity 1
 O        -3.861640         0.408946        -1.166395
 C        -2.602563         0.082982        -1.587385
 C        -2.536892        -1.187303        -2.286777
 C        -1.959027        -1.321418        -0.935257
 C        -0.494385        -1.295899        -0.660844
 C        -0.028490         0.011942         0.006243
 O         1.019625        -0.060404         0.741264
 C        -0.882875         1.223478        -0.248763
 C        -1.668749         1.310171        -1.512199
 H        -3.780704         1.047819        -0.407330
 H        -3.491367        -1.637743        -2.362413
 H        -1.746969        -1.273385        -3.161528
 H        -2.622010        -1.781854        -0.193281
 H        -0.212851        -2.184977        -0.009754
 H         0.108682        -1.194503        -1.595161
 H        -1.663792         1.228369         0.535539
 H        -0.223617         2.031800        -0.011856
 H        -2.272833         2.224766        -1.576990
 H        -1.111716         1.354213        -2.489708
