19
Iteration:   441
 O        -4.044300         0.465560        -1.480506
 C        -2.618978         0.041104        -1.376860
 C        -2.131341        -0.991675        -2.339421
 C        -2.145509        -1.353029        -0.834626
 C        -0.700432        -1.387199        -0.128901
 C        -0.008567        -0.024594         0.007596
 O         1.202818         0.021660         0.104255
 C        -0.846305         1.285512        -0.088185
 C        -1.724129         1.150964        -1.304960
 H        -4.400542         0.026068        -0.618811
 H        -2.978499        -1.333048        -3.008556
 H        -1.164619        -0.944655        -2.733747
 H        -3.006157        -1.951872        -0.551920
 H        -0.815600        -1.873153         0.837289
 H        -0.107990        -1.997861        -0.868241
 H        -1.313615         1.656928         0.882476
 H        -0.053353         2.068437        -0.367030
 H        -2.256581         2.100278        -1.608934
 H        -0.901537         1.087915        -1.955739
