19
Iteration:  1627charge 0 multiplicity 1
 O        -4.013351         0.312668        -1.494092
 C        -2.576252         0.123108        -1.444917
 C        -1.965397        -1.057405        -2.365461
 C        -2.097506        -1.248456        -0.896146
 C        -0.869968        -1.378656        -0.064695
 C        -0.012637        -0.064736        -0.053160
 O         1.184461        -0.107955        -0.081026
 C        -0.828203         1.324741         0.059261
 C        -1.810403         1.380438        -1.138228
 H        -4.469602        -0.318886        -1.002647
 H        -2.677264        -1.729437        -2.996289
 H        -1.154950        -0.651746        -2.916078
 H        -2.858414        -2.035911        -0.777661
 H        -1.019795        -1.430840         1.021876
 H        -0.134931        -2.144017        -0.306650
 H        -1.295984         1.331194         1.027199
 H        -0.223431         2.192693         0.135593
 H        -2.455540         2.200080        -1.033046
 H        -1.085941         1.644845        -1.919346
