19
Iteration:   396
 O        -3.885825         0.277709        -1.215785
 C        -2.528661         0.115849        -1.617933
 C        -2.158439        -1.115770        -2.485163
 C        -2.061945        -1.162609        -0.842252
 C        -0.854758        -1.309682         0.087973
 C         0.000083        -0.013033        -0.019965
 O         1.213275        -0.077246        -0.036743
 C        -0.946313         1.192748        -0.043299
 C        -1.686831         1.318926        -1.330018
 H        -4.527390         0.180163        -1.996418
 H        -3.081179        -1.513151        -2.949984
 H        -1.246534        -1.138059        -3.084027
 H        -2.932628        -1.563236        -0.407346
 H        -1.203857        -0.981367         1.065630
 H        -0.292899        -2.272804         0.046441
 H        -1.722001         1.177549         0.809754
 H        -0.377633         2.163925         0.136495
 H        -2.524816         2.087968        -1.242999
 H        -1.037012         1.611292        -2.126617
