19
Iteration:   847
 O        -3.911503         0.280818        -0.853106
 C        -2.606186         0.045078        -1.488295
 C        -2.757514        -1.142868        -2.369945
 C        -1.853160        -1.177197        -1.030642
 C        -0.234238        -1.131890        -0.945292
 C        -0.019728        -0.023832         0.056602
 O         0.504768        -0.107615         1.113293
 C        -0.491590         1.345530        -0.489222
 C        -1.585058         1.111959        -1.674066
 H        -3.646976         0.697966         0.085805
 H        -3.613718        -1.820222        -2.259466
 H        -2.183731        -0.900811        -3.279297
 H        -2.461303        -1.599231        -0.259668
 H         0.022856        -2.094238        -0.511679
 H         0.165550        -0.969145        -1.978207
 H        -1.035111         2.056445         0.123026
 H         0.380328         1.870557        -0.881074
 H        -1.991734         2.120870        -2.000322
 H        -1.142924         0.818635        -2.659431
