19
Iteration:  2631charge 0 multiplicity 1
 O        -3.989451         0.437690        -1.330291
 C        -2.520972        -0.000231        -1.505092
 C        -2.345299        -1.107990        -2.460104
 C        -2.086025        -1.334003        -0.932211
 C        -0.683959        -1.366817        -0.259518
 C         0.027024         0.024847         0.039292
 O         1.220062         0.059526         0.182521
 C        -0.909952         1.251160         0.067250
 C        -1.667159         1.282841        -1.289348
 H        -4.606134        -0.317379        -1.699214
 H        -3.295165        -1.680890        -2.704891
 H        -1.506045        -1.190572        -3.235569
 H        -2.907501        -1.837171        -0.441841
 H        -0.657510        -1.785282         0.734918
 H         0.163893        -1.890984        -0.747082
 H        -1.649713         1.265275         0.924075
 H        -0.183276         2.090878         0.091112
 H        -2.381824         2.062272        -1.273246
 H        -0.987516         1.621930        -1.998748
