19
Iteration:  2787charge 0 multiplicity 1
 O        -4.040245         0.201815        -1.444424
 C        -2.583990         0.118952        -1.450714
 C        -2.212780        -0.976466        -2.317063
 C        -2.066245        -1.292552        -0.907377
 C        -0.779167        -1.317012        -0.298641
 C         0.034972        -0.020434        -0.020061
 O         1.218760        -0.000140         0.115914
 C        -0.817397         1.226926         0.077342
 C        -1.734613         1.284977        -1.295862
 H        -4.285365         0.791383        -0.784126
 H        -3.039490        -1.408891        -2.808094
 H        -1.182435        -1.138441        -2.815540
 H        -2.910665        -1.829646        -0.420134
 H        -1.003775        -1.601414         0.715197
 H         0.015981        -1.937272        -0.722636
 H        -1.478123         1.240667         0.953516
 H        -0.185982         2.099038         0.199838
 H        -2.377114         2.112072        -1.268420
 H        -1.060084         1.429814        -2.048723
