19
Iteration:  4235charge 0 multiplicity 1
 O        -3.996277         0.159050        -1.493301
 C        -2.551412         0.010405        -1.460684
 C        -2.037949        -0.969186        -2.391558
 C        -2.105123        -1.283756        -0.881765
 C        -0.779656        -1.338526        -0.048993
 C        -0.060348        -0.066906        -0.021670
 O         1.183355         0.038887        -0.204857
 C        -0.812303         1.305252         0.109612
 C        -1.782733         1.347148        -1.098888
 H        -4.322772         0.412527        -0.545293
 H        -2.838933        -1.306090        -3.111078
 H        -1.100947        -0.683597        -2.859749
 H        -2.961536        -1.936208        -0.609902
 H        -1.112821        -1.422912         1.058308
 H        -0.307156        -2.274582        -0.238128
 H        -1.368821         1.393115         1.109786
 H        -0.125006         2.115958         0.096813
 H        -2.527606         2.082746        -0.944136
 H        -1.331231         1.673547        -2.074244
