19
Iteration:   904charge 0 multiplicity 1
 O        -3.757604         0.396301        -0.803842
 C        -2.485924         0.009426        -1.507602
 C        -2.541685        -1.116446        -2.447316
 C        -1.950754        -1.286047        -1.056000
 C        -0.454002        -1.326903        -0.749705
 C        -0.009502        -0.022104        -0.035056
 O         0.616393         0.034807         0.968531
 C        -0.711155         1.283330        -0.448101
 C        -1.708222         1.246885        -1.635769
 H        -3.538800         0.177635         0.030824
 H        -3.548855        -1.553988        -2.796076
 H        -1.948361        -1.184123        -3.380186
 H        -2.629176        -1.811792        -0.321127
 H        -0.269919        -2.229180        -0.094628
 H         0.119143        -1.353073        -1.686226
 H        -1.018079         1.885687         0.422955
 H         0.191934         1.819108        -0.748418
 H        -2.294793         2.139790        -1.767634
 H        -1.045725         1.040570        -2.494514
