19
Iteration:   946
 O        -3.934889         0.359248        -0.955400
 C        -2.663086         0.053545        -1.492621
 C        -2.568957        -1.089493        -2.431091
 C        -1.942106        -1.271995        -1.057603
 C        -0.457067        -1.199476        -0.737708
 C        -0.020316         0.013777         0.098182
 O         0.870457        -0.045711         0.898479
 C        -0.749308         1.320927        -0.330121
 C        -1.552902         1.077883        -1.662207
 H        -4.010330         0.507674         0.066643
 H        -3.604595        -1.627632        -2.461297
 H        -1.990889        -0.987791        -3.383710
 H        -2.504860        -1.824603        -0.265923
 H        -0.051814        -1.984245        -0.059263
 H        -0.000313        -1.146353        -1.740949
 H        -1.258421         1.637119         0.589454
 H        -0.007455         2.095608        -0.596848
 H        -1.948368         1.967087        -2.270881
 H        -0.722106         0.765504        -2.368773
