19
Iteration:  2021
 O        -3.957955         0.276406        -1.192400
 C        -2.551017         0.061319        -1.559431
 C        -2.137414        -1.081161        -2.475734
 C        -2.041033        -1.180742        -0.958551
 C        -0.827075        -1.315422        -0.044830
 C        -0.091418        -0.060159         0.124966
 O         1.115945         0.047766        -0.071721
 C        -0.923651         1.197890         0.066645
 C        -1.531579         1.283683        -1.324063
 H        -4.383887         0.677154        -1.962791
 H        -2.970033        -1.716115        -2.950263
 H        -1.302246        -0.927740        -3.098177
 H        -2.797230        -1.856796        -0.503936
 H        -1.179307        -1.578111         0.958736
 H        -0.071819        -2.063101        -0.328896
 H        -1.647483         1.006617         0.830253
 H        -0.309262         2.086902         0.286560
 H        -2.220315         2.288487        -1.438220
 H        -0.967336         1.313414        -2.307514
