19
Iteration:   722charge 0 multiplicity 1
 O        -3.809466         0.402765        -0.772807
 C        -2.636160         0.018992        -1.338016
 C        -2.546661        -1.171939        -2.511858
 C        -1.941917        -1.368435        -1.153192
 C        -0.455378        -1.233003        -0.816034
 C        -0.082629         0.014231         0.057281
 O         0.690931        -0.058319         1.032361
 C        -0.678559         1.420210        -0.503968
 C        -1.611527         1.192803        -1.717079
 H        -3.791031         0.790720         0.136740
 H        -3.511760        -1.667614        -2.667313
 H        -1.788384        -1.091462        -3.294828
 H        -2.440350        -2.113808        -0.464349
 H        -0.031376        -2.071667        -0.175901
 H         0.270788        -1.384021        -1.637841
 H        -1.163181         1.894442         0.369671
 H         0.289774         1.902131        -0.829203
 H        -2.133507         2.178126        -1.975087
 H        -0.952165         0.859882        -2.571605
