19
Iteration:  1773
 O        -4.017277         0.304653        -1.316086
 C        -2.586312         0.045680        -1.456708
 C        -2.129662        -1.039647        -2.386343
 C        -2.121759        -1.276623        -0.876319
 C        -0.762039        -1.316680        -0.181732
 C        -0.017158        -0.003739        -0.041812
 O         1.236685        -0.022739         0.141316
 C        -0.848850         1.217958        -0.015180
 C        -1.765334         1.241959        -1.366730
 H        -4.135606         1.224871        -1.817536
 H        -2.779132        -1.568283        -2.978574
 H        -1.139977        -0.677261        -2.608368
 H        -2.955738        -1.849245        -0.473737
 H        -1.015924        -1.625140         0.823792
 H        -0.060621        -2.038472        -0.621610
 H        -1.477819         1.178283         0.807287
 H        -0.287426         2.173409         0.105724
 H        -2.370741         2.136572        -1.181746
 H        -1.076474         1.381675        -2.154783
