19
Iteration:  4995
 O        -4.060343         0.174137        -1.333436
 C        -2.609843         0.009691        -1.312607
 C        -2.081383        -0.737910        -2.546718
 C        -2.056921        -1.335112        -1.067035
 C        -0.793706        -1.343169        -0.317736
 C         0.013387        -0.017400        -0.099674
 O         1.169696        -0.111013         0.447802
 C        -0.520810         1.296298        -0.520729
 C        -2.016282         1.252209        -0.793527
 H        -4.422304         1.045726        -1.352380
 H        -2.716985        -1.275849        -3.111446
 H        -1.185457        -0.508960        -3.160552
 H        -2.794785        -2.019447        -0.737512
 H        -0.922328        -1.728951         0.675188
 H        -0.160705        -1.969098        -0.824745
 H        -0.387655         2.140839         0.250725
 H         0.020154         1.526266        -1.363511
 H        -2.669320         1.355749         0.224999
 H        -2.285912         2.196150        -1.319424
