19
Iteration:  1265
 O        -3.957168         0.246083        -1.627740
 C        -2.522330         0.109251        -1.455103
 C        -1.977126        -0.964755        -2.313531
 C        -2.062432        -1.211930        -0.842765
 C        -0.912847        -1.322647         0.122782
 C        -0.031624        -0.084649         0.004748
 O         1.164805        -0.117529        -0.333226
 C        -0.775087         1.243940         0.122388
 C        -1.858837         1.359426        -1.142657
 H        -4.357914         0.101250        -0.845525
 H        -2.537808        -1.389061        -3.087586
 H        -0.918963        -0.699983        -2.676219
 H        -2.872030        -1.871418        -0.422679
 H        -1.478066        -1.397192         1.127267
 H        -0.148156        -2.181875        -0.025158
 H        -1.643826         1.056257         0.865417
 H        -0.337627         2.205106         0.415796
 H        -2.503998         2.078645        -0.675220
 H        -1.396564         1.774098        -2.075425
