19
Iteration:  2192
 O        -3.972208         0.031452        -1.326656
 C        -2.534456         0.126404        -1.413140
 C        -2.044396        -0.952289        -2.447891
 C        -2.157071        -1.298920        -0.960769
 C        -0.919804        -1.253852        -0.009491
 C        -0.011783        -0.005886        -0.052168
 O         1.245612        -0.151158         0.068897
 C        -0.741206         1.343215        -0.078655
 C        -1.834468         1.426744        -1.283776
 H        -4.575290         0.760143        -1.611795
 H        -2.887621        -1.381741        -2.967861
 H        -1.038996        -0.747659        -2.883206
 H        -2.944217        -1.990048        -0.678277
 H        -1.314295        -1.193764         1.028776
 H        -0.341626        -2.185854        -0.012219
 H        -1.293192         1.464891         0.850926
 H         0.019647         2.110926        -0.179807
 H        -2.497578         2.174118        -1.102694
 H        -1.139559         1.545706        -2.166671
