19
Iteration:  1433
 O        -3.976538         0.229007        -1.579284
 C        -2.595269         0.032482        -1.451873
 C        -1.822966        -0.868818        -2.333704
 C        -2.107146        -1.297816        -0.935888
 C        -0.993704        -1.268722         0.087452
 C         0.016015        -0.130329        -0.005700
 O         1.191259        -0.187278        -0.214067
 C        -0.674322         1.273657        -0.027700
 C        -2.035046         1.394054        -1.042416
 H        -4.382752         0.641290        -0.693998
 H        -2.371333        -1.320684        -3.098813
 H        -0.772421        -0.597386        -2.687762
 H        -2.725417        -2.145562        -0.793417
 H        -1.317328        -0.947907         1.134100
 H        -0.292892        -2.116388         0.226284
 H        -1.006442         1.545158         1.027123
 H        -0.028364         2.164608        -0.290051
 H        -2.815960         1.891863        -0.430777
 H        -1.734720         1.869079        -2.001643
