19
Iteration:  2486charge 0 multiplicity 1
 O        -4.034497         0.304954        -1.255258
 C        -2.622306         0.102026        -1.436725
 C        -2.065316        -1.052878        -2.386584
 C        -2.102644        -1.274676        -0.985103
 C        -0.729544        -1.350725        -0.140025
 C        -0.017501        -0.058754         0.006085
 O         1.227327        -0.012128         0.200596
 C        -0.800942         1.242757        -0.161043
 C        -1.840061         1.374888        -1.304926
 H        -4.576177         0.143987        -2.032307
 H        -2.887908        -1.584332        -3.061453
 H        -1.107582        -0.981187        -2.914086
 H        -2.629781        -2.239081        -0.717448
 H        -1.070055        -1.727825         0.818366
 H        -0.001530        -2.131052        -0.448933
 H        -1.375747         1.418312         0.778444
 H         0.094621         1.990547        -0.254186
 H        -2.412850         2.223262        -0.941711
 H        -1.539753         1.695364        -2.237799
