19
Iteration:  4013charge 0 multiplicity 1
 O        -3.915933         0.307904        -1.003165
 C        -2.562229         0.026668        -1.498175
 C        -2.473698        -1.169744        -2.420263
 C        -1.957426        -1.278660        -1.006414
 C        -0.482444        -1.278163        -0.757132
 C         0.004781         0.034249         0.018710
 O         0.945219         0.030323         0.735085
 C        -0.866854         1.264615        -0.238487
 C        -1.655021         1.236226        -1.545751
 H        -3.857497         0.827473        -0.098372
 H        -3.520496        -1.451722        -2.333065
 H        -1.938834        -1.074220        -3.311516
 H        -2.460178        -1.829171        -0.210315
 H        -0.221181        -2.117351        -0.041761
 H         0.100203        -1.487441        -1.655238
 H        -1.671176         1.310942         0.544201
 H        -0.271913         2.223151        -0.078713
 H        -2.320219         2.221507        -1.554130
 H        -0.958987         1.221160        -2.374827
