19
Iteration:  4004
 O        -3.876132         0.306214        -1.014505
 C        -2.601191        -0.006045        -1.516507
 C        -2.565428        -1.142806        -2.422018
 C        -1.887063        -1.238231        -1.000949
 C        -0.461166        -1.325436        -0.700842
 C         0.008255         0.061816        -0.045083
 O         0.949695        -0.000248         0.797721
 C        -0.846810         1.310213        -0.222743
 C        -1.683678         1.223193        -1.538528
 H        -3.804942         0.904208        -0.157979
 H        -3.557363        -1.701660        -2.619366
 H        -2.132832        -1.090417        -3.361114
 H        -2.584157        -1.906288        -0.550192
 H        -0.056321        -2.104764         0.032552
 H         0.085738        -1.251262        -1.621258
 H        -1.418974         1.318971         0.720059
 H        -0.288856         2.210621        -0.276583
 H        -2.448581         2.070934        -1.586122
 H        -1.090246         1.339885        -2.518010
