19
Iteration:  3791charge 0 multiplicity 1
 O        -3.899071         0.280911        -0.800864
 C        -2.545243        -0.013044        -1.366550
 C        -2.575688        -1.115862        -2.426879
 C        -1.810871        -1.239797        -1.054474
 C        -0.316972        -1.181973        -0.931355
 C        -0.014346         0.055957        -0.075882
 O         0.514419        -0.142588         1.052797
 C        -0.614477         1.449647        -0.549657
 C        -1.709457         1.125364        -1.575036
 H        -3.955058         0.394473         0.227235
 H        -3.556817        -1.571738        -2.658689
 H        -1.791586        -1.136669        -3.208381
 H        -2.288593        -1.661122        -0.197508
 H         0.143531        -1.995018        -0.421467
 H         0.076172        -0.996094        -1.936280
 H        -0.949655         1.942749         0.363000
 H         0.313387         1.999983        -0.866242
 H        -2.254243         2.155430        -1.850007
 H        -1.122808         0.964816        -2.476564
