19
Iteration:  1080
 O        -3.949153         0.414279        -1.173116
 C        -2.595273         0.022395        -1.492087
 C        -2.326792        -1.133439        -2.527846
 C        -2.048039        -1.256128        -0.956140
 C        -0.663000        -1.377098        -0.343718
 C        -0.008128        -0.003045        -0.041894
 O         1.082553         0.038478         0.426812
 C        -0.865338         1.233928        -0.097447
 C        -1.605109         1.272277        -1.457718
 H        -4.058922         0.681551        -0.141678
 H        -3.275580        -1.650213        -2.925369
 H        -1.508610        -1.016324        -3.245862
 H        -2.761428        -1.870226        -0.434145
 H        -0.637135        -1.799905         0.678255
 H        -0.046188        -2.130153        -0.803733
 H        -1.699202         1.292630         0.579887
 H        -0.116342         1.927072         0.217098
 H        -2.337274         2.073091        -1.452021
 H        -0.916745         1.428030        -2.318559
