19
Iteration:  2758
 O        -4.055242         0.232573        -1.319095
 C        -2.620879         0.098032        -1.477372
 C        -2.195950        -0.868101        -2.472207
 C        -2.022991        -1.261270        -0.918465
 C        -0.719273        -1.420375        -0.143216
 C        -0.036565        -0.066636        -0.002234
 O         1.204091         0.013370         0.217802
 C        -0.803694         1.178475        -0.133956
 C        -1.790383         1.329635        -1.344274
 H        -4.274520         0.363266        -0.395442
 H        -2.808363        -1.569582        -2.942608
 H        -1.210520        -0.678353        -2.965434
 H        -2.892213        -1.797864        -0.470287
 H        -0.796343        -1.887791         0.896608
 H         0.110234        -1.982039        -0.626118
 H        -1.386332         1.298645         0.833898
 H        -0.042757         2.026852        -0.175349
 H        -2.290723         2.350112        -1.153239
 H        -1.080964         1.344061        -2.279106
