19
Iteration:  1916
 O        -3.955568         0.281122        -1.346837
 C        -2.570500         0.110791        -1.479017
 C        -2.192251        -1.109097        -2.379485
 C        -2.130188        -1.229177        -0.844257
 C        -0.780794        -1.359380        -0.252726
 C         0.044066         0.012116        -0.080740
 O         1.209279        -0.037538         0.178864
 C        -0.833969         1.256305        -0.036547
 C        -1.761602         1.336370        -1.217068
 H        -4.346477         0.323266        -2.321426
 H        -3.051266        -1.544624        -3.016820
 H        -1.223224        -1.107103        -2.810918
 H        -2.952172        -1.760751        -0.332646
 H        -0.927390        -1.687857         0.819143
 H        -0.106002        -2.084919        -0.768219
 H        -1.337971         1.233593         0.968190
 H        -0.177716         2.162161         0.118937
 H        -2.506830         2.204660        -1.084727
 H        -1.284936         1.430687        -2.195837
