19
Iteration:  2508
 O        -4.034482         0.229733        -1.205974
 C        -2.631754         0.007903        -1.485073
 C        -2.101086        -0.964157        -2.460160
 C        -2.087223        -1.207991        -0.926030
 C        -0.748367        -1.311128        -0.117604
 C         0.027128         0.037569        -0.058535
 O         1.218289        -0.108243         0.210546
 C        -0.817175         1.326915        -0.123805
 C        -1.807091         1.211282        -1.326315
 H        -4.387398         0.838867        -1.967550
 H        -2.638583        -1.704346        -3.185269
 H        -1.273768        -0.489106        -3.024609
 H        -2.918414        -1.903700        -0.561911
 H        -0.965793        -1.493210         0.925296
 H        -0.130941        -2.152966        -0.492251
 H        -1.440022         1.145977         0.798576
 H        -0.268531         2.339839         0.030334
 H        -2.343823         2.147924        -1.291214
 H        -1.148122         1.395204        -2.119827
