19
Iteration:  2680charge 0 multiplicity 1
 O        -4.054749         0.338074        -1.256553
 C        -2.638570         0.096693        -1.488012
 C        -2.185654        -0.979907        -2.415348
 C        -2.049503        -1.200109        -0.911384
 C        -0.708656        -1.445517        -0.192967
 C        -0.006298        -0.085690         0.001398
 O         1.217024         0.027516         0.276091
 C        -0.817603         1.230982        -0.142957
 C        -1.782559         1.317667        -1.384040
 H        -4.414525        -0.466807        -1.008321
 H        -2.893456        -1.456644        -3.059831
 H        -1.209324        -0.685911        -2.803798
 H        -2.711952        -2.028581        -0.622220
 H        -0.755721        -2.113976         0.718754
 H         0.085078        -1.931555        -0.779826
 H        -1.529633         1.220941         0.706846
 H        -0.089719         2.054077        -0.092373
 H        -2.295633         2.339257        -1.432725
 H        -1.081364         1.300346        -2.326039
