19
Iteration:  3685
 O        -3.840191         0.263418        -0.900645
 C        -2.584414        -0.000189        -1.413213
 C        -2.581982        -1.124238        -2.524226
 C        -1.981204        -1.229264        -1.003452
 C        -0.499532        -1.188445        -0.754282
 C        -0.013692         0.027056         0.004347
 O         0.827740         0.037153         0.841782
 C        -0.793684         1.308554        -0.342935
 C        -1.586103         1.161616        -1.577475
 H        -3.670418         0.257314         0.067160
 H        -3.468348        -1.704221        -2.649269
 H        -1.950558        -0.944054        -3.458917
 H        -2.697943        -1.760433        -0.390185
 H        -0.042227        -2.054284        -0.380044
 H         0.047239        -1.069184        -1.739130
 H        -1.469553         1.369735         0.575004
 H        -0.056298         2.072860        -0.276873
 H        -1.767459         2.088410        -2.034134
 H        -0.813551         0.757156        -2.197389
