19
Iteration:  1184charge 0 multiplicity 1
 O        -4.078800         0.253904        -1.531464
 C        -2.532961         0.134177        -1.470010
 C        -2.148055        -1.106852        -2.407534
 C        -2.124982        -1.130250        -0.811545
 C        -0.717689        -1.340386        -0.136099
 C         0.008001        -0.112100        -0.034957
 O         1.257056        -0.020731         0.070868
 C        -0.872012         1.123028         0.017682
 C        -1.753707         1.430109        -1.228279
 H        -4.283283         0.632765        -0.743421
 H        -3.026061        -1.611451        -2.818237
 H        -1.187329        -0.990552        -2.914113
 H        -2.953385        -1.723453        -0.424349
 H        -1.033275        -1.513583         0.945374
 H         0.076423        -2.117634        -0.522948
 H        -1.613391         1.022371         0.848491
 H        -0.064501         1.879623         0.279726
 H        -2.512989         2.268814        -1.168197
 H        -1.117413         1.728205        -2.072516
