19
Iteration:  3049charge 0 multiplicity 1
 O        -4.024381         0.017977        -1.604043
 C        -2.647787         0.100233        -1.439614
 C        -1.952283        -0.750395        -2.280254
 C        -2.106665        -1.209694        -0.894855
 C        -0.905009        -1.277555         0.035762
 C         0.011346        -0.077557        -0.138190
 O         1.271725        -0.161380        -0.092113
 C        -0.719685         1.204605        -0.072020
 C        -1.936239         1.417334        -1.047676
 H        -4.469509        -0.030081        -0.681182
 H        -2.559290        -1.252298        -3.040756
 H        -0.919465        -0.579560        -2.522546
 H        -3.050811        -1.714293        -0.666600
 H        -1.137774        -1.025555         1.104524
 H        -0.272017        -2.185815         0.011745
 H        -0.856097         1.534501         1.003745
 H         0.151121         1.833412        -0.360822
 H        -2.662333         2.001975        -0.505419
 H        -1.666346         2.093737        -1.980877
