19
Iteration:  3672charge 0 multiplicity 1
 O        -3.877721         0.318522        -0.896088
 C        -2.623674         0.057978        -1.554328
 C        -2.562777        -1.154674        -2.445532
 C        -2.011654        -1.252973        -1.091098
 C        -0.479567        -1.233632        -0.739936
 C        -0.054095         0.017102         0.064795
 O         0.924822         0.070769         0.827406
 C        -0.753180         1.279487        -0.254489
 C        -1.564136         1.134545        -1.606779
 H        -3.839093         0.132058         0.094742
 H        -3.505058        -1.580045        -2.712626
 H        -1.764435        -1.233422        -3.270233
 H        -2.498572        -1.914946        -0.385806
 H        -0.128029        -2.148416        -0.301319
 H         0.038109        -1.021696        -1.732821
 H        -1.499980         1.392267         0.585527
 H        -0.231136         2.242608        -0.229785
 H        -2.295501         2.013741        -1.717409
 H        -1.009770         1.000958        -2.465948
