19
Iteration:  1361charge 0 multiplicity 1
 O        -3.940185         0.212933        -1.815533
 C        -2.558979         0.042930        -1.462710
 C        -1.891178        -0.965775        -2.238554
 C        -2.236476        -1.251615        -0.824594
 C        -0.928310        -1.203829         0.142685
 C         0.017904        -0.043617        -0.091349
 O         1.217540        -0.176691        -0.367983
 C        -0.695559         1.265526         0.088718
 C        -1.980771         1.392635        -0.888067
 H        -4.401095         0.456934        -0.928551
 H        -2.509393        -1.239032        -3.041974
 H        -0.822954        -0.904944        -2.497919
 H        -2.903284        -2.039911        -0.490414
 H        -1.238561        -1.141918         1.172676
 H        -0.419545        -2.170143         0.027689
 H        -1.081852         1.164460         1.083213
 H         0.085192         1.960070         0.211692
 H        -2.816061         1.888460        -0.391073
 H        -1.608215         1.884737        -1.755955
