19
Iteration:  3864charge 0 multiplicity 1
 O        -3.839980         0.278624        -0.651107
 C        -2.536301         0.040341        -1.404328
 C        -2.604771        -1.162848        -2.422730
 C        -1.896824        -1.314879        -1.158167
 C        -0.290399        -1.104427        -0.962372
 C        -0.053504         0.089535        -0.029855
 O         0.497875        -0.121268         1.028826
 C        -0.724405         1.436503        -0.462919
 C        -1.553886         1.093647        -1.733297
 H        -3.577047         0.509006         0.262240
 H        -3.629959        -1.557368        -2.513992
 H        -1.999515        -1.053551        -3.355620
 H        -2.222818        -1.793256        -0.263794
 H         0.089292        -1.922017        -0.262040
 H         0.354655        -0.975586        -1.862501
 H        -1.372794         1.664269         0.429683
 H         0.033803         2.234274        -0.569305
 H        -1.955074         1.965851        -1.954558
 H        -0.911257         0.751918        -2.621917
