19
Iteration:  3015charge 0 multiplicity 1
 O        -4.071961         0.238673        -1.614109
 C        -2.656735         0.048570        -1.416353
 C        -1.966973        -0.863896        -2.325365
 C        -2.063125        -1.372966        -0.903264
 C        -0.834914        -1.288602         0.027684
 C         0.064406        -0.013842        -0.092802
 O         1.292664        -0.170699        -0.055143
 C        -0.727440         1.325710        -0.071794
 C        -2.029738         1.323226        -1.038480
 H        -4.352842         0.870702        -0.846477
 H        -2.538565        -1.566204        -3.035921
 H        -1.057786        -0.624151        -2.728294
 H        -2.856941        -2.114428        -0.612358
 H        -1.030198        -1.557196         1.098573
 H        -0.045285        -2.033688        -0.277528
 H        -1.063069         1.475804         1.016738
 H        -0.034007         2.092920        -0.397804
 H        -2.808662         1.792882        -0.477995
 H        -1.730406         1.948509        -2.000441
