19
Iteration:  1524
 O        -3.997222         0.280817        -1.632146
 C        -2.636336         0.097836        -1.392495
 C        -1.941845        -0.926740        -2.312123
 C        -2.113224        -1.288593        -0.844140
 C        -0.822499        -1.389294        -0.025089
 C         0.008486        -0.066480        -0.103251
 O         1.219123        -0.105642         0.002429
 C        -0.716498         1.210702        -0.177214
 C        -1.992682         1.380260        -1.006297
 H        -4.481833         0.502958        -0.771734
 H        -2.466717        -1.185980        -3.233594
 H        -0.935932        -0.724237        -2.641401
 H        -2.954165        -1.979168        -0.608373
 H        -1.225382        -1.376304         1.053707
 H        -0.118736        -2.213867        -0.255436
 H        -1.155160         1.400520         0.833577
 H         0.112156         1.891354        -0.469205
 H        -2.652010         2.082460        -0.386322
 H        -1.658052         1.860080        -1.930854
