19
Iteration:  1508
 O        -4.034370         0.272486        -1.655960
 C        -2.622410         0.024684        -1.380436
 C        -1.893011        -0.821509        -2.238029
 C        -2.145447        -1.248361        -0.850152
 C        -0.847792        -1.308359        -0.000006
 C         0.010986        -0.144258        -0.190830
 O         1.165970        -0.109321         0.001572
 C        -0.702496         1.199685        -0.140314
 C        -1.937827         1.396848        -1.055310
 H        -4.423097         0.250202        -0.857782
 H        -2.433840        -1.631783        -2.691199
 H        -0.855966        -0.495415        -2.573052
 H        -2.749687        -2.113214        -0.702105
 H        -0.899582        -1.534623         1.031329
 H        -0.457616        -2.226068        -0.444958
 H        -0.717061         1.345284         0.910975
 H         0.009140         2.013695        -0.262654
 H        -2.710448         1.879497        -0.512255
 H        -1.777089         1.995217        -1.982251
