19
Iteration:  2905charge 0 multiplicity 1
 O        -3.928981         0.285810        -1.452699
 C        -2.548682         0.073298        -1.414633
 C        -2.056731        -0.978649        -2.384008
 C        -2.025607        -1.313430        -0.968355
 C        -0.875709        -1.370186         0.018191
 C        -0.022130        -0.079614        -0.036909
 O         1.165613         0.056440        -0.127768
 C        -0.895126         1.195965        -0.004115
 C        -1.765099         1.332430        -1.115537
 H        -4.245391         0.485710        -0.537528
 H        -2.835968        -1.440496        -2.868303
 H        -1.261052        -0.636729        -3.112224
 H        -2.676078        -2.202287        -0.807651
 H        -1.484241        -1.429569         0.927524
 H        -0.272089        -2.276559        -0.188700
 H        -1.376632         1.256107         0.981090
 H        -0.297894         2.046706         0.039176
 H        -2.472009         2.131838        -0.956522
 H        -1.152326         1.552316        -2.134943
