19
Iteration:  1808
 O        -3.985095         0.198156        -1.256690
 C        -2.560148         0.100338        -1.443405
 C        -2.129562        -1.002606        -2.395789
 C        -2.088545        -1.248006        -0.931739
 C        -0.771477        -1.393486        -0.174193
 C        -0.055976        -0.035678        -0.020700
 O         1.169397        -0.061983         0.252733
 C        -0.780138         1.297903        -0.187586
 C        -1.795012         1.341071        -1.334080
 H        -4.336813         1.145320        -1.526738
 H        -2.724806        -1.465235        -3.206881
 H        -1.221951        -0.830484        -2.934307
 H        -2.966829        -1.739009        -0.499225
 H        -1.000001        -1.703137         0.836365
 H        -0.072453        -2.174580        -0.476176
 H        -1.211771         1.401124         0.777702
 H         0.126527         1.857426        -0.343317
 H        -2.507400         2.225909        -1.201694
 H        -1.425570         1.660942        -2.298305
