19
Iteration:   801charge 0 multiplicity 1
 O        -3.706444         0.451807        -0.844208
 C        -2.523187        -0.031005        -1.392832
 C        -2.564814        -1.201525        -2.332615
 C        -1.862459        -1.267045        -0.931555
 C        -0.367054        -1.206003        -0.950978
 C        -0.071117         0.097011        -0.105185
 O         0.415340        -0.193593         1.007657
 C        -0.684886         1.366064        -0.491645
 C        -1.662771         1.142515        -1.706003
 H        -3.464048         0.737540         0.198840
 H        -3.486105        -1.620316        -2.553684
 H        -1.752185        -1.059283        -3.042289
 H        -2.284588        -1.739627        -0.052498
 H        -0.064912        -2.049597        -0.353084
 H         0.165302        -0.994719        -1.942068
 H        -0.908903         1.716952         0.511232
 H         0.226784         2.001665        -0.677073
 H        -2.455065         1.998207        -1.889858
 H        -1.068587         1.351161        -2.642320
