19
Iteration:  2521
 O        -4.009715         0.144766        -1.250748
 C        -2.661092         0.069274        -1.433622
 C        -2.159877        -0.963409        -2.468989
 C        -2.067715        -1.229068        -0.938972
 C        -0.820970        -1.236659        -0.137190
 C         0.001700         0.012276        -0.072199
 O         1.215062        -0.047013         0.199455
 C        -0.834243         1.232990        -0.066404
 C        -1.653637         1.264492        -1.334194
 H        -4.310524         0.974134        -1.530041
 H        -3.021709        -1.464752        -2.907696
 H        -1.117027        -0.889373        -3.015245
 H        -2.788407        -2.025708        -0.746936
 H        -1.084576        -1.414213         0.900147
 H        -0.078212        -2.009196        -0.479050
 H        -1.502547         1.264583         0.855498
 H        -0.226401         2.209596        -0.048811
 H        -2.295390         2.081976        -1.390115
 H        -1.071859         1.184351        -2.186983
