19
Iteration:   603charge 0 multiplicity 1
 O        -3.827039         0.356162        -1.098346
 C        -2.556790         0.055963        -1.511099
 C        -2.517230        -1.110700        -2.393304
 C        -2.018372        -1.238450        -0.949047
 C        -0.544088        -1.365134        -0.562514
 C        -0.042561        -0.029802        -0.029065
 O         0.973053         0.054780         0.657323
 C        -0.887961         1.170938        -0.197119
 C        -1.602987         1.274188        -1.576419
 H        -3.846029         1.110187        -0.345314
 H        -3.492826        -1.431469        -2.546014
 H        -1.733764        -1.124645        -3.162166
 H        -2.625765        -1.528497        -0.097122
 H        -0.516007        -2.219438         0.129884
 H         0.185694        -1.656137        -1.339606
 H        -1.555240         1.239294         0.641712
 H        -0.182260         2.024267        -0.216414
 H        -2.271839         2.160755        -1.846270
 H        -0.824769         1.047467        -2.315376
