19
Iteration:  4711charge 0 multiplicity 1
 O        -4.052326         0.093099        -1.001524
 C        -2.663952         0.091042        -1.280098
 C        -2.085845        -0.718208        -2.516575
 C        -1.975418        -1.283360        -1.130442
 C        -0.598606        -1.450300        -0.603660
 C         0.044496        -0.048251        -0.098985
 O         0.705182         0.070824         0.866662
 C        -0.386506         1.132939        -0.986877
 C        -1.931791         1.353958        -0.813352
 H        -4.432168         0.585168        -1.705659
 H        -2.818979        -1.123142        -3.169015
 H        -1.195429        -0.475354        -2.925212
 H        -2.707700        -2.046371        -0.791788
 H        -0.656059        -2.105959         0.241683
 H        -0.052633        -1.880745        -1.446864
 H         0.289368         1.961120        -0.465774
 H        -0.000959         0.934928        -2.037393
 H        -2.124412         1.529714         0.259184
 H        -2.156159         2.340538        -1.396304
