19
Iteration:  4300charge 0 multiplicity 1
 O        -3.910481         0.147599        -1.711300
 C        -2.593336         0.077398        -1.312637
 C        -1.818973        -0.996713        -2.206927
 C        -2.124511        -1.208324        -0.771613
 C        -0.861534        -1.410980        -0.002957
 C        -0.059641        -0.061812        -0.041422
 O         1.093604         0.016031        -0.514104
 C        -0.838888         1.241883         0.167370
 C        -1.850592         1.448653        -0.983787
 H        -4.427299         0.372771        -0.872207
 H        -2.454844        -1.664214        -2.917925
 H        -0.881090        -0.678832        -2.589571
 H        -2.880764        -2.039842        -0.652076
 H        -1.112768        -1.489481         1.082906
 H        -0.322715        -2.230564        -0.410624
 H        -1.511457         1.121175         1.082168
 H        -0.148795         2.005362         0.397757
 H        -2.588850         2.236044        -0.686668
 H        -1.391560         1.945751        -1.832020
