19
Iteration:  3260
 O        -3.979201         0.180410        -1.581535
 C        -2.581509         0.088717        -1.430319
 C        -1.897566        -0.848936        -2.314311
 C        -2.067473        -1.227302        -0.750783
 C        -0.839390        -1.428064         0.086936
 C        -0.062228        -0.128847        -0.018361
 O         1.133366        -0.030328        -0.325817
 C        -0.844298         1.233881        -0.012435
 C        -1.859308         1.369851        -1.086365
 H        -4.324649         0.578760        -0.825087
 H        -2.244328        -1.262249        -3.302490
 H        -0.801900        -0.612783        -2.485154
 H        -2.885161        -1.896204        -0.514698
 H        -1.146470        -1.520633         1.173620
 H        -0.173125        -2.246986        -0.230570
 H        -1.484946         1.139059         0.969588
 H        -0.216877         2.131753         0.109264
 H        -2.527031         2.167587        -0.805970
 H        -1.404789         1.682001        -2.082669
