19
Iteration:  1101charge 0 multiplicity 1
 O        -3.920779         0.266749        -1.217744
 C        -2.552026         0.102058        -1.564011
 C        -2.353017        -1.016651        -2.431051
 C        -2.102695        -1.201482        -0.936490
 C        -0.789772        -1.354318        -0.295764
 C         0.078988         0.036056        -0.012804
 O         1.218601         0.008978         0.399715
 C        -0.920690         1.142731        -0.141897
 C        -1.658464         1.307783        -1.420501
 H        -3.887475         0.566229        -0.340496
 H        -3.192202        -1.534495        -3.022908
 H        -1.475258        -1.079720        -3.064681
 H        -2.873716        -1.764899        -0.468161
 H        -1.018813        -1.910551         0.608403
 H         0.003576        -1.929464        -0.658582
 H        -1.699575         1.053691         0.624503
 H        -0.335537         1.986504         0.130219
 H        -2.288437         2.162198        -1.603451
 H        -0.983550         1.130266        -2.274813
