19
Iteration:  3072charge 0 multiplicity 1
 O        -4.042675         0.147108        -1.582995
 C        -2.581234        -0.010937        -1.348919
 C        -1.869698        -0.835458        -2.329932
 C        -2.072966        -1.268687        -0.912996
 C        -1.010425        -1.303052         0.075736
 C        -0.032638        -0.115393        -0.104240
 O         1.235842        -0.115979        -0.167777
 C        -0.700871         1.329997        -0.147758
 C        -1.915925         1.449587        -0.961851
 H        -4.543099        -0.210648        -0.905769
 H        -2.399250        -1.291175        -3.088992
 H        -0.762939        -0.562965        -2.523837
 H        -2.797209        -2.015172        -0.668341
 H        -1.338899        -1.353296         1.134175
 H        -0.374542        -2.159533        -0.169212
 H        -0.946936         1.484867         0.941682
 H         0.188059         2.013161        -0.271703
 H        -2.744571         1.952611        -0.474159
 H        -1.727844         1.965242        -2.018758
