19
Iteration:   376
 O        -3.935873         0.157421        -1.328485
 C        -2.520177         0.119061        -1.450579
 C        -2.092464        -1.074666        -2.346481
 C        -2.115475        -1.198445        -0.845036
 C        -0.927577        -1.306895         0.079736
 C        -0.031628        -0.068256        -0.013302
 O         1.189240        -0.042751        -0.114305
 C        -0.878753         1.208069        -0.040194
 C        -1.643217         1.437404        -1.395446
 H        -4.335796         1.032990        -1.760081
 H        -2.893061        -1.677113        -2.810479
 H        -1.149804        -0.920733        -2.791939
 H        -2.926063        -1.753718        -0.419715
 H        -1.306726        -1.464187         1.073556
 H        -0.177056        -2.052951        -0.254286
 H        -1.604513         1.135707         0.765478
 H        -0.245675         2.078555         0.265614
 H        -2.386963         2.260918        -1.385167
 H        -1.072895         1.404073        -2.264109
