19
Iteration:  3577charge 0 multiplicity 1
 O        -3.961164         0.260208        -1.169144
 C        -2.643419         0.046268        -1.449992
 C        -2.488102        -1.155295        -2.469304
 C        -1.991515        -1.263945        -1.019645
 C        -0.535182        -1.217097        -0.502749
 C        -0.024069         0.053407         0.016634
 O         1.123289        -0.011204         0.556230
 C        -0.867030         1.284137        -0.146549
 C        -1.658641         1.266934        -1.446728
 H        -4.020827         0.635629        -0.206751
 H        -3.390978        -1.668168        -2.840371
 H        -1.665885        -1.091292        -3.211876
 H        -2.549895        -2.051251        -0.522787
 H        -0.560264        -1.930318         0.293293
 H         0.226550        -1.525792        -1.212353
 H        -1.403542         1.377287         0.818055
 H        -0.077999         1.980606        -0.010214
 H        -2.166428         2.167356        -1.391374
 H        -1.056845         1.230945        -2.469804
