19
Iteration:  4659charge 0 multiplicity 1
 O        -4.100066         0.164576        -1.178755
 C        -2.713674         0.043336        -1.418520
 C        -2.265407        -0.795004        -2.573931
 C        -1.965537        -1.325035        -1.133911
 C        -0.605714        -1.381634        -0.455370
 C         0.092083        -0.040651        -0.001397
 O         0.978665        -0.007496         0.820498
 C        -0.407964         1.287429        -0.771065
 C        -1.961881         1.297341        -0.912072
 H        -4.226018         0.603107        -0.368000
 H        -3.200316        -1.291333        -3.119634
 H        -1.493749        -0.358820        -3.151667
 H        -2.609061        -2.238070        -0.953330
 H        -0.766658        -1.844007         0.474515
 H         0.143218        -1.856216        -1.093527
 H         0.135187         2.011980        -0.153257
 H        -0.071786         1.160399        -1.789918
 H        -2.444198         1.502753         0.041754
 H        -2.158722         2.043870        -1.728994
