19
Iteration:   312charge 0 multiplicity 1
 O        -3.962945         0.234966        -1.734440
 C        -2.549330         0.091666        -1.467356
 C        -2.141670        -1.087666        -2.253284
 C        -2.118825        -1.201843        -0.660831
 C        -0.810153        -1.291195         0.068136
 C         0.048617        -0.064680        -0.146193
 O         1.271435        -0.041841        -0.168921
 C        -0.816422         1.192092         0.009104
 C        -1.865375         1.368375        -1.137556
 H        -4.442997         0.973726        -1.074360
 H        -3.002612        -1.577013        -2.772988
 H        -1.208416        -1.203325        -2.810043
 H        -3.005472        -1.639266        -0.232357
 H        -0.994246        -1.187710         1.162298
 H        -0.360886        -2.311055        -0.016325
 H        -1.373623         1.077520         0.908549
 H        -0.085280         2.003210         0.167736
 H        -2.622353         2.003886        -0.660677
 H        -1.354929         1.963286        -1.986483
