19
Iteration:  4904charge 0 multiplicity 1
 O        -4.039961         0.084542        -1.088981
 C        -2.679379         0.061673        -1.312002
 C        -2.161068        -0.608824        -2.479542
 C        -1.993622        -1.275694        -1.170281
 C        -0.685616        -1.453062        -0.521843
 C         0.097766        -0.038386        -0.128315
 O         0.855026         0.015235         0.804620
 C        -0.416498         1.158318        -0.894269
 C        -1.902947         1.265604        -0.757050
 H        -4.421236         0.668206        -1.835312
 H        -2.792791        -1.194145        -3.252955
 H        -1.344686        -0.104522        -3.030221
 H        -2.768572        -2.076869        -1.016650
 H        -0.934736        -1.783057         0.536971
 H        -0.109955        -2.177421        -0.980885
 H         0.005020         1.939518        -0.351982
 H        -0.024243         1.280252        -1.922525
 H        -2.116791         1.667451         0.256978
 H        -2.209093         2.139678        -1.453752
