19
Iteration:  2461
 O        -3.950887         0.247480        -1.436321
 C        -2.541980         0.057831        -1.405414
 C        -2.232408        -0.962755        -2.400712
 C        -2.146337        -1.266035        -0.858822
 C        -0.775608        -1.324332        -0.140871
 C         0.048836        -0.069299        -0.164339
 O         1.234368        -0.004101         0.238975
 C        -0.765219         1.282261        -0.096292
 C        -1.876662         1.330493        -1.201851
 H        -4.487297        -0.478105        -1.947514
 H        -2.835735        -1.561585        -3.029592
 H        -1.283942        -0.743972        -2.848407
 H        -2.880449        -1.845477        -0.302298
 H        -0.885423        -1.773611         0.891376
 H        -0.140303        -2.041344        -0.660078
 H        -0.989214         1.471036         0.970289
 H         0.082014         1.882870        -0.348186
 H        -2.705048         2.117485        -0.910955
 H        -1.496823         1.784755        -2.229369
