19
Iteration:  4478
 O        -4.079124         0.140965        -1.589020
 C        -2.687188         0.097382        -1.338398
 C        -1.912293        -0.801152        -2.381688
 C        -2.019508        -1.332737        -0.973920
 C        -0.829618        -1.293202        -0.025808
 C         0.050787        -0.065302        -0.092340
 O         1.217923        -0.141072         0.041564
 C        -0.609721         1.263076        -0.350442
 C        -2.097623         1.356690        -0.810035
 H        -4.477964         0.292962        -0.667476
 H        -2.638759        -1.255557        -3.172828
 H        -0.923445        -0.358386        -2.698885
 H        -2.761574        -2.047104        -0.589731
 H        -1.220633        -1.425346         0.949975
 H        -0.079675        -2.005913        -0.119249
 H        -0.509444         1.854468         0.556223
 H         0.052758         1.787037        -1.133896
 H        -2.747778         1.509281         0.041086
 H        -2.214243         2.221291        -1.545764
