19
Iteration:  4439charge 0 multiplicity 1
 O        -4.059368         0.199306        -1.651951
 C        -2.647842         0.032792        -1.389195
 C        -1.961936        -0.830255        -2.328402
 C        -2.078299        -1.288880        -0.919861
 C        -0.854872        -1.181495         0.038055
 C         0.109340        -0.037760        -0.107315
 O         1.287808        -0.118894        -0.141078
 C        -0.727877         1.215717        -0.155778
 C        -2.007969         1.272318        -0.848811
 H        -4.716656        -0.149715        -1.017563
 H        -2.476341        -1.088015        -3.238282
 H        -0.976937        -0.653601        -2.500030
 H        -2.814588        -2.073185        -0.663043
 H        -1.286930        -1.229843         1.111374
 H        -0.213223        -2.172369        -0.109581
 H        -0.898832         1.495552         0.923883
 H        -0.070133         1.940188        -0.519440
 H        -2.701898         1.637666        -0.029632
 H        -2.022041         2.092224        -1.554128
