19
Iteration:  1693
 O        -3.961568         0.535645        -1.393735
 C        -2.557777        -0.019217        -1.454395
 C        -2.050654        -1.068868        -2.313971
 C        -2.111440        -1.268719        -0.842517
 C        -0.700787        -1.405963        -0.074601
 C        -0.098025        -0.055223         0.041474
 O         1.145754         0.041667        -0.120247
 C        -0.966883         1.158816         0.053869
 C        -1.681580         1.306499        -1.253402
 H        -4.621974        -0.100562        -1.927510
 H        -2.477714        -1.664136        -3.150388
 H        -1.172728        -0.779536        -2.874774
 H        -2.861011        -1.974690        -0.457657
 H        -0.911645        -1.866352         0.930475
 H         0.022483        -2.026459        -0.633348
 H        -1.839666         1.153765         0.652072
 H        -0.371684         1.991660         0.372733
 H        -2.245159         2.193325        -1.226814
 H        -1.023515         1.360834        -2.134889
