19
Iteration:  4050
 O        -3.942443         0.383669        -1.090445
 C        -2.586480         0.000978        -1.461528
 C        -2.422823        -1.099532        -2.444323
 C        -2.016181        -1.307794        -0.975629
 C        -0.530326        -1.189882        -0.664728
 C         0.002224         0.003856         0.078880
 O         1.081449         0.061982         0.577176
 C        -0.955608         1.289430        -0.143822
 C        -1.615073         1.110910        -1.444213
 H        -3.874913         0.179972        -0.096440
 H        -3.407295        -1.549468        -2.601951
 H        -1.933396        -1.226445        -3.485547
 H        -2.791772        -1.841367        -0.414065
 H        -0.305064        -2.185763        -0.171424
 H         0.028776        -1.261260        -1.620569
 H        -1.735409         1.299572         0.611258
 H        -0.352516         2.127253        -0.010683
 H        -2.112066         1.980191        -1.772818
 H        -0.812758         0.940854        -2.332388
