19
Iteration:  4038
 O        -3.904961         0.330469        -1.057070
 C        -2.617354         0.015639        -1.509682
 C        -2.470922        -1.119785        -2.431513
 C        -2.008660        -1.230085        -0.917979
 C        -0.521482        -1.303040        -0.686120
 C        -0.045986         0.043107         0.011485
 O         1.007766         0.069436         0.610586
 C        -0.905745         1.249071        -0.106422
 C        -1.583941         1.160770        -1.536781
 H        -3.975705         0.324751        -0.035850
 H        -3.420217        -1.666421        -2.745722
 H        -1.687652        -0.793464        -3.119440
 H        -2.538286        -1.895955        -0.249359
 H         0.086331        -2.175639        -0.264566
 H        -0.126128        -1.130957        -1.694457
 H        -1.639610         1.282082         0.708580
 H        -0.335101         2.112344        -0.030499
 H        -2.056160         2.106571        -1.795817
 H        -0.673862         0.934474        -2.278013
