19
Iteration:  2410charge 0 multiplicity 1
 O        -4.001853         0.331744        -1.500987
 C        -2.659568         0.062096        -1.481720
 C        -2.035154        -0.947513        -2.360098
 C        -2.145118        -1.240634        -0.820114
 C        -0.755477        -1.348470        -0.084438
 C         0.056310        -0.071321        -0.017384
 O         1.301494        -0.021813         0.074379
 C        -0.834496         1.218902        -0.121670
 C        -1.922710         1.295622        -1.169777
 H        -4.727006        -0.320615        -1.228314
 H        -2.744533        -1.620522        -2.984680
 H        -1.118553        -0.691642        -2.891206
 H        -2.798936        -2.095599        -0.500645
 H        -1.006632        -1.464961         0.984628
 H        -0.134750        -2.221076        -0.389815
 H        -1.205576         1.369809         0.912994
 H        -0.077774         2.072250        -0.206512
 H        -2.521597         2.125355        -0.937258
 H        -1.461953         1.549767        -2.074091
