19
Iteration:  1384
 O        -3.970232         0.095946        -1.809351
 C        -2.616048         0.089704        -1.377617
 C        -1.876717        -0.854341        -2.236115
 C        -2.154072        -1.159863        -0.773022
 C        -0.994522        -1.345265         0.109235
 C         0.013945        -0.070986        -0.097212
 O         1.234999        -0.219750        -0.335779
 C        -0.742683         1.287143         0.029140
 C        -1.894018         1.492914        -0.903827
 H        -4.599440         0.115135        -1.087034
 H        -2.408557        -1.403635        -3.039284
 H        -0.872863        -0.615891        -2.518996
 H        -2.841179        -2.012614        -0.528868
 H        -1.292411        -1.303406         1.132584
 H        -0.395118        -2.252103        -0.100633
 H        -1.134834         1.529572         0.975153
 H         0.096911         1.967144        -0.128458
 H        -2.633424         2.063426        -0.389195
 H        -1.545295         1.891989        -1.826578
