19
Iteration:  3544charge 0 multiplicity 1
 O        -3.951610         0.331282        -1.147674
 C        -2.621778         0.017366        -1.428817
 C        -2.335006        -1.004628        -2.438189
 C        -2.066423        -1.302055        -0.957077
 C        -0.569604        -1.360286        -0.500134
 C         0.017070        -0.001701        -0.005518
 O         1.103669         0.128717         0.477269
 C        -0.916628         1.163692        -0.137109
 C        -1.680935         1.211041        -1.428880
 H        -3.986331         1.007185        -0.516856
 H        -3.187480        -1.453552        -3.036306
 H        -1.447286        -0.881237        -3.057662
 H        -2.613281        -2.098534        -0.451043
 H        -0.442401        -2.037472         0.340628
 H         0.077395        -1.849006        -1.234432
 H        -1.656767         1.224381         0.703792
 H        -0.217208         1.962493        -0.145926
 H        -2.289103         2.062498        -1.412952
 H        -1.156814         1.306388        -2.491882
