19
Iteration:  1429
 O        -3.962460         0.238855        -1.589211
 C        -2.598994         0.029045        -1.423572
 C        -1.802857        -0.860397        -2.306644
 C        -2.117441        -1.292311        -0.916277
 C        -0.971201        -1.280242         0.104269
 C         0.015820        -0.184879         0.010936
 O         1.193642        -0.184480        -0.231843
 C        -0.700953         1.336120        -0.042002
 C        -2.040464         1.408589        -1.040199
 H        -4.287199         0.573722        -0.749064
 H        -2.308103        -1.340980        -3.207147
 H        -0.850150        -0.535083        -2.685594
 H        -2.732769        -2.227814        -0.860220
 H        -1.307317        -0.957081         1.059876
 H        -0.467698        -2.287829         0.059042
 H        -1.001058         1.412346         0.954986
 H        -0.145684         2.179353        -0.369918
 H        -2.824552         1.886623        -0.527045
 H        -1.740844         1.824860        -1.992097
