19
Iteration:  1629
 O        -4.008299         0.317777        -1.492965
 C        -2.571846         0.115407        -1.468767
 C        -1.983782        -1.052733        -2.364235
 C        -2.090718        -1.265242        -0.899296
 C        -0.874977        -1.354093        -0.067051
 C        -0.019114        -0.051928        -0.041969
 O         1.200590        -0.108586        -0.086536
 C        -0.817341         1.308158         0.070447
 C        -1.806570         1.372224        -1.134900
 H        -4.531067        -0.400751        -0.972718
 H        -2.750760        -1.653696        -2.951763
 H        -1.068582        -0.700671        -2.866562
 H        -2.928538        -2.010983        -0.765272
 H        -1.069529        -1.460262         0.986162
 H        -0.115252        -2.102874        -0.292110
 H        -1.392922         1.326151         1.041047
 H        -0.209097         2.253010         0.136208
 H        -2.512303         2.189956        -1.056732
 H        -1.086573         1.633318        -1.926834
