19
Iteration:  4844
 O        -4.090290         0.077142        -1.139197
 C        -2.638449         0.076874        -1.355052
 C        -2.301734        -0.716092        -2.556584
 C        -2.011512        -1.259639        -1.035975
 C        -0.479964        -1.352169        -0.639947
 C         0.056801        -0.076939        -0.044455
 O         0.801899        -0.059022         0.941674
 C        -0.357421         1.207068        -0.894828
 C        -1.930176         1.331678        -0.876080
 H        -4.182206         0.877931        -0.655516
 H        -3.204177        -1.003804        -3.044801
 H        -1.480815        -0.420371        -3.109512
 H        -2.708843        -1.973414        -0.614608
 H        -0.337188        -2.182886         0.002555
 H         0.144617        -1.682364        -1.596778
 H         0.025665         2.082560        -0.215706
 H         0.133441         1.041833        -1.921837
 H        -2.317202         1.662658         0.049387
 H        -2.088460         2.047762        -1.658253
