19
Iteration:  2948
 O        -4.090229         0.159638        -1.586033
 C        -2.665541         0.054715        -1.425982
 C        -1.983120        -0.926392        -2.303043
 C        -2.014336        -1.136324        -0.856906
 C        -0.850475        -1.225284        -0.097994
 C         0.044966        -0.024116        -0.064255
 O         1.275332        -0.192984        -0.086502
 C        -0.794915         1.215416         0.051331
 C        -1.907257         1.407727        -1.111559
 H        -4.597123         0.143452        -0.817244
 H        -2.579382        -1.552165        -2.840277
 H        -0.934519        -0.828166        -2.639579
 H        -2.797083        -1.855516        -0.557138
 H        -0.931548        -1.596979         0.958604
 H        -0.231474        -1.987355        -0.635559
 H        -1.248815         1.231997         1.119137
 H        -0.208281         2.088220        -0.015225
 H        -2.640385         2.130693        -0.802861
 H        -1.306484         1.646144        -2.121865
