19
Iteration:  3122
 O        -3.982314         0.134904        -1.742003
 C        -2.638201         0.072476        -1.404465
 C        -1.892557        -0.894091        -2.250746
 C        -2.149954        -1.254800        -0.872462
 C        -0.935779        -1.280082         0.092180
 C         0.041826        -0.070668        -0.071991
 O         1.229020        -0.097946        -0.299526
 C        -0.643753         1.226710        -0.015378
 C        -1.983040         1.383726        -0.913715
 H        -4.568949         0.410813        -0.931785
 H        -2.493947        -1.397717        -3.056057
 H        -0.963809        -0.502554        -2.523996
 H        -2.825956        -2.141974        -0.704853
 H        -1.414937        -0.963271         1.016001
 H        -0.266723        -2.130541         0.261015
 H        -1.018794         1.282771         1.006369
 H         0.018601         2.051427        -0.117989
 H        -2.654746         1.849431        -0.161790
 H        -1.896904         2.020328        -1.712514
