19
Iteration:   961
 O        -3.899238         0.401273        -1.065899
 C        -2.602458         0.010751        -1.417084
 C        -2.567754        -1.145413        -2.402457
 C        -2.006270        -1.273169        -0.968953
 C        -0.495679        -1.259059        -0.830019
 C        -0.007126         0.038041         0.048345
 O         0.874819         0.013784         0.829204
 C        -0.791340         1.332038        -0.287452
 C        -1.564441         1.095906        -1.514904
 H        -3.653240         0.851254        -0.154908
 H        -3.427338        -1.687112        -2.621832
 H        -1.684527        -1.006694        -3.099702
 H        -2.604737        -1.972424        -0.412475
 H        -0.239177        -2.257882        -0.437654
 H         0.200435        -1.282318        -1.671953
 H        -1.489631         1.735681         0.475506
 H         0.076068         1.981366        -0.371723
 H        -1.973744         2.003026        -1.886432
 H        -0.969314         0.689978        -2.324306
