19
Iteration:  2501charge 0 multiplicity 1
 O        -4.057971         0.287854        -1.199881
 C        -2.663470        -0.011834        -1.485441
 C        -2.083087        -0.985002        -2.459414
 C        -2.028075        -1.300360        -0.917896
 C        -0.783329        -1.303427        -0.138602
 C         0.032382        -0.010740        -0.015941
 O         1.251988        -0.096402         0.211377
 C        -0.821135         1.282378        -0.125852
 C        -1.843940         1.324051        -1.358318
 H        -4.389681         0.592206        -2.027650
 H        -2.569565        -1.670161        -3.080795
 H        -1.134864        -0.560920        -2.939802
 H        -2.889054        -1.800636        -0.561355
 H        -0.991702        -1.469038         0.942079
 H        -0.127718        -2.046953        -0.641752
 H        -1.363580         1.365445         0.842571
 H        -0.233587         2.208404        -0.053394
 H        -2.582985         2.116485        -1.262919
 H        -1.095801         1.534204        -2.168336
