19
Iteration:     7
 O        -3.995129         0.221159        -1.571565
 C        -2.568541         0.046773        -1.422569
 C        -2.040371        -1.022076        -2.348965
 C        -2.150635        -1.243131        -0.818055
 C        -0.805757        -1.297360         0.058928
 C        -0.050135         0.014451        -0.049857
 O         1.200702        -0.069118        -0.122337
 C        -0.797197         1.303271        -0.021918
 C        -1.781383         1.305950        -1.220143
 H        -4.297592         0.377221        -0.708930
 H        -2.954656        -1.444077        -2.827567
 H        -1.032092        -1.092715        -2.758129
 H        -3.057866        -1.810146        -0.571093
 H        -1.180792        -1.291923         1.120172
 H        -0.205439        -2.222377        -0.009659
 H        -1.341556         1.341271         0.951070
 H         0.064865         2.016331        -0.087754
 H        -2.426313         2.174019        -0.901934
 H        -1.090438         1.502725        -2.050147
