19
Iteration:   697charge 0 multiplicity 1
 O        -3.803566         0.329647        -0.899488
 C        -2.613738         0.043739        -1.471920
 C        -2.477325        -1.080058        -2.387829
 C        -1.938171        -1.206001        -0.911893
 C        -0.460961        -1.307377        -0.718265
 C        -0.041979        -0.075788        -0.108696
 O         0.639931        -0.060423         0.898198
 C        -0.693777         1.356735        -0.469997
 C        -1.643653         1.218753        -1.640462
 H        -3.701626         0.571300        -0.059251
 H        -3.349413        -1.655862        -2.649197
 H        -1.649828        -0.868818        -3.189130
 H        -2.526953        -1.703429        -0.200472
 H         0.096438        -2.103227        -0.190430
 H         0.043636        -1.464907        -1.684658
 H        -1.233094         1.457592         0.534680
 H         0.126877         2.069744        -0.677353
 H        -2.291319         2.024754        -1.581210
 H        -1.041768         1.244373        -2.534892
