19
Iteration:  2893charge 0 multiplicity 1
 O        -3.936328         0.313818        -1.406228
 C        -2.560342         0.005608        -1.498010
 C        -2.043649        -0.988093        -2.481028
 C        -2.024925        -1.286329        -0.914299
 C        -0.816672        -1.351548        -0.001173
 C        -0.103253        -0.025041        -0.030677
 O         1.145919        -0.018074        -0.138208
 C        -0.853463         1.249909         0.131277
 C        -1.812644         1.298479        -1.182901
 H        -4.062959         0.613700        -0.536139
 H        -2.742754        -1.593756        -2.887089
 H        -1.206270        -0.767105        -3.205463
 H        -2.904272        -1.902949        -0.703801
 H        -0.942504        -1.417532         1.108006
 H        -0.056902        -2.149599        -0.108605
 H        -1.611267         1.076041         0.924048
 H        -0.187873         2.055170         0.217585
 H        -2.538162         2.118761        -1.115328
 H        -1.083314         1.678094        -2.071866
