19
Iteration:  2018charge 0 multiplicity 1
 O        -3.935144         0.279710        -1.180335
 C        -2.544759         0.046147        -1.568237
 C        -2.133406        -1.098955        -2.460939
 C        -2.049061        -1.156154        -0.957898
 C        -0.819675        -1.306839        -0.043454
 C        -0.104138        -0.081511         0.096342
 O         1.106192         0.035225        -0.071506
 C        -0.942692         1.229670         0.074110
 C        -1.543867         1.287581        -1.334800
 H        -4.334708         0.632095        -1.948133
 H        -2.945971        -1.680878        -2.918211
 H        -1.305225        -0.938318        -3.155281
 H        -2.727610        -1.923734        -0.559233
 H        -1.212317        -1.545844         0.979013
 H        -0.079791        -2.035362        -0.405408
 H        -1.628970         0.982925         0.867213
 H        -0.341838         2.068182         0.366482
 H        -2.125187         2.234607        -1.488253
 H        -0.944557         1.410477        -2.162824
