19
Iteration:  2032
 O        -3.988300         0.268224        -1.258788
 C        -2.576598         0.104663        -1.481386
 C        -2.166187        -0.999296        -2.475176
 C        -2.067687        -1.300705        -0.950966
 C        -0.821207        -1.371417        -0.017120
 C        -0.014876         0.007024         0.104271
 O         1.198009         0.079245        -0.040432
 C        -0.890837         1.164214         0.054270
 C        -1.629526         1.229861        -1.360501
 H        -4.435979         0.860375        -2.018535
 H        -2.925947        -1.655861        -3.029816
 H        -1.227845        -0.897590        -2.951211
 H        -3.044543        -1.662082        -0.604082
 H        -1.241105        -1.677996         0.946567
 H        -0.141402        -2.185601        -0.319144
 H        -1.728264         1.333175         0.647494
 H        -0.239294         2.049451         0.150816
 H        -2.196311         2.301088        -1.247285
 H        -0.729774         1.242741        -2.060879
