19
Iteration:  2362charge 0 multiplicity 1
 O        -3.954287         0.297220        -1.332072
 C        -2.540962         0.097144        -1.440047
 C        -1.960268        -1.060184        -2.443977
 C        -2.014451        -1.188150        -0.972073
 C        -0.900523        -1.283485         0.015108
 C        -0.046466         0.014444         0.046289
 O         1.147734        -0.129270        -0.177798
 C        -0.930650         1.300076         0.090085
 C        -1.782869         1.272609        -1.254604
 H        -4.531319        -0.475455        -1.380928
 H        -2.495745        -1.700488        -3.073694
 H        -0.968611        -0.806627        -2.797773
 H        -2.763190        -1.799222        -0.525909
 H        -1.262421        -1.473338         1.024483
 H        -0.233362        -2.073220        -0.299294
 H        -1.416521         1.344985         1.089976
 H        -0.238915         2.116986         0.077985
 H        -2.510066         2.135717        -1.244688
 H        -1.121686         1.497318        -2.007150
