19
Iteration:  4632
 O        -4.118744         0.132498        -1.223045
 C        -2.713346         0.080120        -1.303778
 C        -2.119402        -0.694126        -2.446816
 C        -1.998926        -1.217330        -1.077329
 C        -0.640669        -1.355656        -0.432968
 C         0.029651        -0.089763        -0.006955
 O         1.025263        -0.010578         0.688726
 C        -0.514018         1.122070        -0.755065
 C        -1.950291         1.345607        -1.006577
 H        -4.495859        -0.365501        -0.538664
 H        -2.784648        -1.211022        -3.112767
 H        -1.205625        -0.333556        -2.978453
 H        -2.632647        -2.069022        -0.912170
 H        -0.670474        -2.008394         0.511034
 H         0.071579        -1.848971        -1.110823
 H        -0.049127         1.895305        -0.068635
 H         0.101262         1.105142        -1.716670
 H        -2.437179         1.771918        -0.070794
 H        -2.092279         2.103026        -1.870877
