19
Iteration:  4281
 O        -3.991699         0.223570        -1.660755
 C        -2.541588         0.074853        -1.418288
 C        -1.882915        -0.883566        -2.283775
 C        -2.071851        -1.304711        -0.716266
 C        -0.769170        -1.291968         0.089847
 C        -0.056382        -0.003437        -0.133625
 O         1.153594        -0.047546        -0.452361
 C        -0.933834         1.130058         0.214502
 C        -1.878804         1.315247        -1.045391
 H        -4.461795         0.596935        -0.810934
 H        -2.481047        -1.290425        -3.170970
 H        -0.824125        -0.725942        -2.565508
 H        -2.936340        -1.933507        -0.506936
 H        -1.121753        -1.463822         1.217435
 H        -0.043516        -2.044094        -0.236487
 H        -1.427298         0.971694         1.199901
 H        -0.391564         2.102490         0.274984
 H        -2.567529         2.071064        -0.936738
 H        -1.282312         1.736110        -1.964946
