19
Iteration:   749
 O        -3.723824         0.323150        -0.817723
 C        -2.607126         0.027077        -1.451525
 C        -2.786890        -1.054597        -2.519696
 C        -1.892317        -1.269639        -1.116619
 C        -0.398159        -1.189117        -0.838639
 C        -0.035089         0.068881         0.105531
 O         0.621443         0.034588         1.107010
 C        -0.652061         1.234813        -0.503286
 C        -1.567769         1.039435        -1.693901
 H        -3.599890         0.379454         0.176327
 H        -3.714961        -1.454766        -2.217244
 H        -2.308301        -1.102147        -3.550740
 H        -2.413036        -1.899915        -0.441691
 H         0.090078        -2.067308        -0.430655
 H         0.177449        -1.034656        -1.787198
 H        -1.123138         1.749562         0.338271
 H         0.204668         1.802977        -0.806830
 H        -1.980150         2.057120        -1.835905
 H        -1.000266         0.846169        -2.605759
