19
Iteration:  1058charge 0 multiplicity 1
 O        -3.917726         0.464213        -1.218903
 C        -2.663468         0.065701        -1.464698
 C        -2.347319        -1.055346        -2.412472
 C        -2.016525        -1.390251        -1.025120
 C        -0.634695        -1.361076        -0.416453
 C        -0.048727        -0.000153         0.122349
 O         1.099911         0.018517         0.438199
 C        -0.855494         1.312546        -0.146046
 C        -1.685475         1.151896        -1.451348
 H        -4.104201         0.527614        -0.332110
 H        -3.296067        -1.567663        -2.744201
 H        -1.534978        -0.917830        -3.181286
 H        -2.704060        -1.982637        -0.459486
 H        -0.377970        -2.121432         0.374306
 H         0.082872        -1.788978        -1.107321
 H        -1.449013         1.461281         0.760494
 H        -0.149358         2.126697        -0.212739
 H        -2.126431         2.098431        -1.750119
 H        -0.804067         1.048180        -2.114030
