19
Iteration:  2411
 O        -4.007136         0.332006        -1.501160
 C        -2.672315         0.060906        -1.488177
 C        -2.033024        -0.954563        -2.361292
 C        -2.147083        -1.234708        -0.816778
 C        -0.750772        -1.346219        -0.086421
 C         0.063121        -0.065923        -0.018561
 O         1.297572        -0.028476         0.077888
 C        -0.831485         1.220142        -0.113567
 C        -1.924814         1.296815        -1.167536
 H        -4.699214        -0.299715        -1.240447
 H        -2.741157        -1.635259        -3.004465
 H        -1.124403        -0.689963        -2.890144
 H        -2.778446        -2.111322        -0.510971
 H        -0.946879        -1.478529         1.009376
 H        -0.121330        -2.225860        -0.388635
 H        -1.200317         1.366557         0.909946
 H        -0.067258         2.062377        -0.226636
 H        -2.521704         2.126096        -0.944561
 H        -1.448595         1.597417        -2.115480
