19
Iteration:  3792
 O        -3.895637         0.286324        -0.794674
 C        -2.545222        -0.025249        -1.364134
 C        -2.569924        -1.120407        -2.428634
 C        -1.815511        -1.234507        -1.061715
 C        -0.313017        -1.184293        -0.928154
 C        -0.010198         0.048786        -0.078292
 O         0.510172        -0.135638         1.052350
 C        -0.612043         1.444730        -0.542966
 C        -1.711858         1.134421        -1.581363
 H        -3.958301         0.405449         0.192505
 H        -3.573249        -1.595593        -2.644710
 H        -1.800495        -1.120297        -3.188631
 H        -2.326803        -1.654541        -0.214314
 H         0.134174        -2.004956        -0.451158
 H         0.089393        -0.969776        -1.934038
 H        -0.928262         1.927970         0.366452
 H         0.289275         1.995883        -0.865472
 H        -2.286874         2.148436        -1.865458
 H        -1.122204         0.968336        -2.446573
