19
Iteration:  1677
 O        -3.986064         0.475936        -1.442157
 C        -2.604430         0.162732        -1.466445
 C        -2.058670        -1.064689        -2.352487
 C        -2.040213        -1.336148        -0.887621
 C        -0.785420        -1.407873        -0.052198
 C        -0.054648        -0.068558        -0.001669
 O         1.180284         0.063536        -0.113050
 C        -0.949506         1.158899         0.112926
 C        -1.703247         1.295944        -1.277340
 H        -4.512568        -0.358482        -1.646156
 H        -2.882456        -1.655778        -2.803618
 H        -1.022741        -1.104798        -2.869757
 H        -2.772213        -2.029432        -0.454108
 H        -1.047268        -1.556202         1.018251
 H        -0.131608        -2.258233        -0.339485
 H        -1.487962         0.990449         1.150102
 H        -0.213949         2.004149         0.362864
 H        -2.323270         2.279409        -1.202053
 H        -0.922433         1.469439        -2.043092
