19
Iteration:   705
 O        -3.847287         0.367707        -0.832821
 C        -2.541171         0.023657        -1.466624
 C        -2.438813        -1.069494        -2.383697
 C        -1.913360        -1.253778        -0.972598
 C        -0.455444        -1.278140        -0.738789
 C        -0.080635        -0.017709        -0.083578
 O         0.625301        -0.094542         0.903206
 C        -0.684644         1.333280        -0.481332
 C        -1.643591         1.171596        -1.643284
 H        -3.505358         0.663440        -0.029187
 H        -3.328733        -1.662901        -2.666186
 H        -1.708775        -0.835002        -3.149764
 H        -2.578244        -1.808769        -0.323588
 H        -0.136970        -2.030747        -0.033641
 H         0.021727        -1.345049        -1.732226
 H        -1.234423         1.745923         0.379304
 H         0.014297         2.125586        -0.689179
 H        -2.329943         2.019953        -1.795738
 H        -1.148373         1.120221        -2.604470
