19
Iteration:  4380charge 0 multiplicity 1
 O        -3.965277         0.116841        -1.689680
 C        -2.637167         0.036122        -1.314176
 C        -1.767352        -0.773577        -2.289359
 C        -2.012266        -1.214384        -0.825038
 C        -0.928792        -1.303386         0.182733
 C        -0.024303        -0.122104        -0.111289
 O         1.119290        -0.084983        -0.465595
 C        -0.768875         1.234532         0.047155
 C        -1.995602         1.344653        -0.915926
 H        -4.477013         0.538658        -0.914545
 H        -2.285319        -1.378997        -3.010256
 H        -0.743679        -0.303048        -2.613487
 H        -2.741182        -2.017095        -0.883409
 H        -1.265991        -1.402433         1.293959
 H        -0.447270        -2.279634        -0.022201
 H        -1.080647         1.383286         1.112199
 H         0.083749         1.969846        -0.223485
 H        -2.764578         1.899494        -0.476069
 H        -1.692454         1.928144        -1.893218
