19
Iteration:   701charge 0 multiplicity 1
 O        -3.835229         0.348898        -0.868371
 C        -2.570597         0.025472        -1.484522
 C        -2.451491        -1.064007        -2.384938
 C        -1.909385        -1.226043        -0.943665
 C        -0.465834        -1.278914        -0.720589
 C        -0.074472        -0.068331        -0.110508
 O         0.629174        -0.080020         0.900388
 C        -0.688914         1.353307        -0.473323
 C        -1.636344         1.175785        -1.634205
 H        -3.493620         0.668471         0.094517
 H        -3.326322        -1.648093        -2.624467
 H        -1.701267        -0.794685        -3.099612
 H        -2.583151        -1.768630        -0.233838
 H         0.031230        -2.049572        -0.078733
 H         0.008483        -1.405011        -1.710540
 H        -1.247340         1.592644         0.437587
 H         0.063167         2.137029        -0.725136
 H        -2.395754         2.048920        -1.692681
 H        -1.073848         1.185985        -2.619055
