19
Iteration:  1028
 O        -3.980255         0.334342        -1.231107
 C        -2.674814         0.101439        -1.541378
 C        -2.470486        -1.090848        -2.383520
 C        -2.091545        -1.258830        -0.935510
 C        -0.634033        -1.255058        -0.568946
 C         0.005571         0.017314         0.055993
 O         1.125295         0.019259         0.609448
 C        -0.796979         1.229482        -0.152514
 C        -1.537004         1.184166        -1.470932
 H        -4.145858         0.482247        -0.260965
 H        -3.386721        -1.652293        -2.738289
 H        -1.719320        -1.247012        -3.100142
 H        -2.696257        -1.862964        -0.271011
 H        -0.279584        -2.081194         0.092275
 H         0.010695        -1.579817        -1.451963
 H        -1.438878         1.085710         0.764456
 H        -0.234181         2.193616        -0.022338
 H        -1.962646         2.135785        -1.781615
 H        -0.645465         1.024271        -2.102310
