19
Iteration:    47charge 0 multiplicity 1
 O        -4.075533         0.240723        -1.399767
 C        -2.625001         0.039409        -1.449938
 C        -1.927534        -0.981233        -2.427922
 C        -2.049643        -1.229867        -0.919665
 C        -0.939113        -1.201231         0.122879
 C        -0.008941        -0.006247        -0.013820
 O         1.224234        -0.194453        -0.049270
 C        -0.713937         1.312275        -0.125569
 C        -1.820551         1.329919        -1.262124
 H        -4.433435        -0.224390        -0.611976
 H        -2.538517        -1.707772        -2.983131
 H        -0.957318        -0.737517        -3.024291
 H        -2.793519        -2.054517        -0.761662
 H        -1.431553        -1.047181         1.081133
 H        -0.293361        -2.111370         0.206999
 H        -1.302845         1.391159         0.792887
 H        -0.104877         2.196847        -0.200768
 H        -2.580283         2.000659        -0.921245
 H        -1.485843         1.674616        -2.287093
