19
Iteration:  2383
 O        -3.949366         0.266797        -1.396076
 C        -2.583934         0.076666        -1.441665
 C        -2.018469        -0.984639        -2.428578
 C        -2.141305        -1.352909        -0.899582
 C        -0.849877        -1.359141         0.037068
 C        -0.065043        -0.036579        -0.097348
 O         1.158915        -0.001101        -0.043442
 C        -0.794163         1.281112        -0.011516
 C        -1.739398         1.391600        -1.217853
 H        -4.563852        -0.569405        -1.328951
 H        -2.769163        -1.384078        -3.050521
 H        -1.107670        -0.713659        -2.946447
 H        -2.779899        -2.199263        -0.728446
 H        -1.200145        -1.242882         1.090611
 H        -0.153772        -2.168729        -0.129353
 H        -1.382110         1.245532         0.928166
 H        -0.061354         2.011078         0.203012
 H        -2.392103         2.259669        -0.893056
 H        -1.196710         1.601513        -2.204075
