19
Iteration:    18
 O        -4.015747         0.152342        -1.536547
 C        -2.498645         0.049810        -1.435200
 C        -2.122571        -1.001275        -2.466403
 C        -2.152255        -1.303630        -0.890438
 C        -0.871450        -1.256980         0.110171
 C        -0.023204         0.003658        -0.015392
 O         1.153953        -0.079394        -0.106933
 C        -0.691238         1.371548         0.004039
 C        -1.719736         1.315220        -1.123864
 H        -4.329853        -0.071822        -0.744428
 H        -3.026463        -1.283051        -3.078860
 H        -1.229846        -1.300622        -3.009510
 H        -3.000556        -1.880653        -0.492462
 H        -1.348915        -1.045340         1.097716
 H        -0.154068        -2.089920         0.194451
 H        -1.030767         1.774655         0.982125
 H         0.041948         2.147906        -0.336336
 H        -2.497675         2.141322        -1.221111
 H        -1.245743         1.573580        -2.101355
