19
Iteration:  2638
 O        -3.941203         0.449037        -1.321660
 C        -2.578483         0.027236        -1.499513
 C        -2.285489        -1.191456        -2.467710
 C        -2.082956        -1.343504        -0.932314
 C        -0.687153        -1.353891        -0.263449
 C         0.005996         0.040773        -0.005848
 O         1.227861         0.037340         0.211440
 C        -0.887809         1.277722         0.036129
 C        -1.749355         1.302738        -1.269005
 H        -4.587199        -0.260508        -1.587679
 H        -3.257760        -1.452596        -2.709140
 H        -1.542429        -1.031375        -3.308442
 H        -2.844552        -1.957642        -0.440474
 H        -0.661304        -1.819957         0.758689
 H         0.006978        -2.042504        -0.794797
 H        -1.525748         1.130142         0.876872
 H        -0.269716         2.207096         0.215518
 H        -2.436931         2.227274        -1.190925
 H        -0.841516         1.393282        -2.027615
