19
Iteration:   332
 O        -4.002699         0.390482        -1.665284
 C        -2.659513        -0.005338        -1.399803
 C        -2.056402        -1.158852        -2.247313
 C        -2.152681        -1.350318        -0.789416
 C        -0.824209        -1.270722         0.063743
 C         0.039080         0.009634         0.002270
 O         1.247823        -0.030434        -0.199431
 C        -0.773613         1.268362        -0.017805
 C        -1.847720         1.289329        -1.146717
 H        -4.035664         1.360067        -1.428762
 H        -2.826060        -1.740024        -2.782575
 H        -1.070032        -0.911401        -2.639689
 H        -2.842521        -2.091726        -0.476724
 H        -1.014141        -1.552681         1.097351
 H        -0.217514        -2.083884        -0.396070
 H        -1.257428         1.336856         0.958134
 H        -0.163801         2.205324        -0.081011
 H        -2.459397         2.143509        -0.760210
 H        -1.297463         1.464594        -2.049365
