19
Iteration:  1246
 O        -3.945566         0.366018        -1.590139
 C        -2.573226         0.027906        -1.405597
 C        -1.940215        -0.991796        -2.364969
 C        -2.096206        -1.312353        -0.872000
 C        -0.879691        -1.330665         0.101365
 C        -0.070324        -0.063291        -0.040212
 O         1.165695        -0.042364        -0.253749
 C        -0.882361         1.219791         0.061763
 C        -1.797456         1.359065        -1.071373
 H        -4.384322         0.282068        -0.800398
 H        -2.624175        -1.608271        -2.917883
 H        -0.947351        -0.833542        -2.891552
 H        -2.900807        -2.090598        -0.903297
 H        -1.117740        -1.482128         1.176113
 H        -0.179955        -2.178732        -0.017802
 H        -1.288116         1.561252         1.032314
 H         0.031428         1.876346        -0.035237
 H        -2.655261         2.028585        -0.941539
 H        -1.144923         1.645215        -1.923160
