19
Iteration:   837
 O        -3.895716         0.294461        -0.855275
 C        -2.646240         0.052902        -1.435752
 C        -2.708709        -1.186509        -2.313219
 C        -1.797215        -1.199075        -1.084839
 C        -0.354288        -1.115945        -0.973954
 C        -0.056725        -0.021468         0.013012
 O         0.498644        -0.079173         1.140148
 C        -0.501826         1.295222        -0.450483
 C        -1.530312         1.183680        -1.756411
 H        -3.894190         0.790935         0.099797
 H        -3.711417        -1.691393        -2.234678
 H        -2.347413        -1.294527        -3.379406
 H        -2.069464        -1.784718        -0.209904
 H         0.194230        -2.021613        -0.679770
 H         0.173733        -0.946576        -1.939093
 H        -0.847672         1.885543         0.418445
 H         0.358565         1.756974        -0.889564
 H        -1.988497         2.171711        -1.836187
 H        -0.957953         0.860606        -2.637494
