19
Iteration:   238charge 0 multiplicity 1
 O        -3.984999         0.359789        -1.523888
 C        -2.562512         0.038573        -1.407016
 C        -1.901295        -0.984448        -2.421173
 C        -2.017136        -1.351642        -0.830399
 C        -0.996523        -1.240412         0.269535
 C        -0.032031        -0.105970        -0.040552
 O         1.178489        -0.077118        -0.275692
 C        -0.745720         1.289803        -0.042240
 C        -1.841662         1.281117        -1.219652
 H        -4.487965        -0.080841        -0.678390
 H        -2.610985        -1.595728        -2.923209
 H        -1.110316        -0.636337        -2.992644
 H        -2.830974        -2.063530        -0.757683
 H        -1.638947        -0.875900         1.095801
 H        -0.436931        -2.069713         0.625790
 H        -1.329706         1.498888         0.882678
 H         0.055404         2.043124        -0.064350
 H        -2.629641         1.708127        -0.751257
 H        -1.467541         1.703824        -2.165251
