19
Iteration:  3271
 O        -3.956151         0.238677        -1.577229
 C        -2.597123         0.012211        -1.336756
 C        -1.883719        -0.857357        -2.294010
 C        -2.142879        -1.310155        -0.799639
 C        -0.881542        -1.445085         0.055668
 C         0.017742        -0.064103        -0.155636
 O         1.218717         0.028911        -0.269200
 C        -0.912736         1.188591         0.048990
 C        -1.860463         1.384365        -1.150284
 H        -4.383633         0.755475        -0.831336
 H        -2.395155        -1.523365        -3.004727
 H        -0.824434        -0.432456        -2.365856
 H        -3.002917        -1.964384        -0.661153
 H        -1.248424        -1.511594         1.132940
 H        -0.340918        -2.396503        -0.117143
 H        -1.498583         1.265580         1.064419
 H        -0.141216         1.982231         0.027098
 H        -2.570674         2.149496        -0.929527
 H        -1.225779         1.767967        -2.012502
