19
Iteration:  1660charge 0 multiplicity 1
 O        -3.907095         0.366153        -1.492066
 C        -2.566505         0.022944        -1.453931
 C        -2.128566        -1.056333        -2.481809
 C        -2.129789        -1.230113        -0.834791
 C        -0.856734        -1.332154        -0.024338
 C         0.011190        -0.042949        -0.038691
 O         1.222481         0.036647        -0.106821
 C        -0.876260         1.183410         0.134474
 C        -1.702754         1.309810        -1.128913
 H        -4.442122        -0.414819        -1.390170
 H        -3.077640        -1.488162        -2.895932
 H        -1.232047        -0.726544        -2.947481
 H        -3.015095        -1.845888        -0.709358
 H        -1.149946        -1.430946         1.053656
 H        -0.208487        -2.184557        -0.242964
 H        -1.651326         1.040775         0.818043
 H        -0.376156         2.105812         0.192748
 H        -2.421150         2.070216        -1.179804
 H        -1.030862         1.461976        -1.986349
