19
Iteration:  3399charge 0 multiplicity 1
 O        -3.998502         0.192582        -1.310626
 C        -2.582590         0.022916        -1.460214
 C        -2.304650        -0.985253        -2.559883
 C        -2.014844        -1.234337        -1.000493
 C        -0.761018        -1.309004        -0.184959
 C        -0.008771        -0.008158         0.016897
 O         1.221302         0.024402         0.197827
 C        -0.793685         1.269169        -0.017268
 C        -1.756298         1.282495        -1.265865
 H        -4.218142         0.516812        -0.359959
 H        -3.081632        -1.657985        -2.763925
 H        -1.529792        -1.003843        -3.401538
 H        -2.770797        -1.961003        -0.720587
 H        -1.016563        -1.577789         0.831814
 H        -0.050257        -2.101991        -0.464455
 H        -1.304961         1.288989         0.914755
 H        -0.131620         2.143983        -0.164821
 H        -2.414622         2.195824        -1.176826
 H        -0.945230         1.511213        -2.026531
