19
Iteration:  2367charge 0 multiplicity 1
 O        -3.963817         0.296633        -1.333104
 C        -2.544287         0.039450        -1.479875
 C        -1.981230        -1.011611        -2.433945
 C        -2.014515        -1.229667        -0.936502
 C        -0.902472        -1.277154        -0.013882
 C        -0.076827        -0.002412         0.025138
 O         1.163342        -0.114141        -0.154410
 C        -0.902042         1.289664         0.078475
 C        -1.781557         1.341118        -1.208965
 H        -4.453976        -0.542462        -1.378035
 H        -2.532248        -1.782996        -3.086734
 H        -0.950968        -0.831491        -2.834605
 H        -2.856965        -1.856114        -0.518118
 H        -1.217650        -1.472025         1.039937
 H        -0.223915        -2.163160        -0.168183
 H        -1.443528         1.359001         1.037231
 H        -0.171995         2.151381        -0.042275
 H        -2.497257         2.129529        -1.360856
 H        -0.971179         1.580692        -2.057009
