19
Iteration:  2280charge 0 multiplicity 1
 O        -3.963762         0.391879        -1.616654
 C        -2.572687         0.039433        -1.515461
 C        -2.026281        -1.206301        -2.283266
 C        -2.116946        -1.175391        -0.734199
 C        -0.741444        -1.310777        -0.131445
 C         0.017784        -0.038485         0.030129
 O         1.159532        -0.051767        -0.264827
 C        -0.942234         1.264398         0.208006
 C        -1.805374         1.363581        -1.058555
 H        -4.361985        -0.386600        -1.851335
 H        -2.792381        -1.596948        -2.897017
 H        -0.949480        -1.094266        -2.702250
 H        -3.005911        -1.625913        -0.302748
 H        -0.883006        -1.426295         0.959760
 H        -0.157340        -2.095170        -0.669736
 H        -1.463563         1.065413         1.063776
 H        -0.353335         2.184609         0.341531
 H        -2.517261         2.158722        -0.977360
 H        -0.963479         1.424116        -1.856188
