19
Iteration:  2550charge 0 multiplicity 1
 O        -3.926811         0.231451        -1.266024
 C        -2.607450         0.046916        -1.534005
 C        -2.275566        -1.090602        -2.502184
 C        -2.063037        -1.241857        -0.963103
 C        -0.768792        -1.479534        -0.093428
 C        -0.011110        -0.015223         0.032566
 O         1.177172         0.094741         0.117995
 C        -0.851898         1.294064         0.017430
 C        -1.635061         1.310722        -1.292882
 H        -4.260968         1.195195        -1.397207
 H        -3.173651        -1.520073        -3.069363
 H        -1.384827        -1.156091        -3.114937
 H        -2.952786        -1.848372        -0.618359
 H        -1.106363        -1.696036         0.951580
 H         0.003601        -2.073779        -0.576259
 H        -1.530037         1.466223         0.829105
 H        -0.248590         2.217987         0.101970
 H        -2.430415         2.162824        -1.285899
 H        -0.923602         1.415024        -2.216169
