19
Iteration:  1874charge 0 multiplicity 1
 O        -4.014437         0.296508        -1.282488
 C        -2.654703         0.022448        -1.372155
 C        -2.121973        -0.917197        -2.440565
 C        -2.126408        -1.250993        -0.968356
 C        -0.759389        -1.322847        -0.146106
 C         0.055288        -0.049032        -0.047941
 O         1.222746        -0.082698         0.328695
 C        -0.714915         1.255245        -0.227884
 C        -1.844575         1.266669        -1.293728
 H        -4.461742        -0.034096        -2.073893
 H        -3.013775        -1.354217        -3.006436
 H        -1.219757        -0.619533        -2.900810
 H        -2.943893        -1.869744        -0.573987
 H        -0.809857        -1.741109         0.893543
 H        -0.093957        -1.995076        -0.721115
 H        -1.295766         1.406833         0.681592
 H        -0.073274         2.121607        -0.418139
 H        -2.552295         2.249011        -1.187713
 H        -1.426812         1.640546        -2.251722
