19
Iteration:   912
 O        -3.768756         0.359934        -0.832436
 C        -2.564309         0.039752        -1.510449
 C        -2.562233        -1.115007        -2.434687
 C        -1.957650        -1.282435        -1.097495
 C        -0.491376        -1.310128        -0.760790
 C        -0.015966         0.028384        -0.002316
 O         0.714203         0.005945         1.033549
 C        -0.708351         1.298620        -0.487583
 C        -1.658045         1.225773        -1.675771
 H        -3.617643         0.096267         0.039055
 H        -3.601400        -1.612205        -2.448497
 H        -1.979867        -0.974907        -3.327555
 H        -2.636962        -1.687137        -0.339784
 H        -0.237502        -2.192590        -0.162043
 H         0.238377        -1.526096        -1.571435
 H        -1.135335         1.596424         0.481139
 H         0.223948         1.912953        -0.576384
 H        -2.438858         2.043553        -1.825855
 H        -1.020801         1.156068        -2.614864
