19
Iteration:  2377charge 0 multiplicity 1
 O        -3.958917         0.281061        -1.358181
 C        -2.584002        -0.000873        -1.522428
 C        -1.996791        -0.965493        -2.426480
 C        -2.110897        -1.331891        -0.871627
 C        -0.838475        -1.308482         0.011687
 C        -0.056750        -0.056929        -0.061143
 O         1.135864        -0.042365        -0.083265
 C        -0.823016         1.285921         0.024541
 C        -1.741976         1.428574        -1.184896
 H        -4.335002        -0.562588        -1.363970
 H        -2.766625        -1.562698        -3.006111
 H        -1.021840        -0.743962        -2.937411
 H        -2.926090        -2.098308        -0.762982
 H        -1.286162        -1.280587         1.014455
 H        -0.142685        -2.168027        -0.117264
 H        -1.492381         1.345471         0.911416
 H        -0.066216         2.145795         0.078194
 H        -2.437007         2.257697        -1.123040
 H        -1.095305         1.521871        -2.068841
