19
Iteration:  4307charge 0 multiplicity 1
 O        -3.928897         0.135535        -1.723104
 C        -2.522044         0.099262        -1.328017
 C        -1.828074        -1.004027        -2.225805
 C        -2.124579        -1.249524        -0.713875
 C        -0.879141        -1.406105        -0.008114
 C        -0.021661        -0.070729        -0.054848
 O         1.051876         0.036612        -0.516060
 C        -0.802911         1.213919         0.236082
 C        -1.855437         1.478955        -1.024628
 H        -4.633359         0.287269        -0.960501
 H        -2.449266        -1.444267        -2.941773
 H        -0.850841        -0.736129        -2.615544
 H        -2.957587        -1.937308        -0.619985
 H        -1.301494        -1.567620         0.964767
 H        -0.249481        -2.290837        -0.326177
 H        -1.361623         1.294238         1.146347
 H        -0.043553         2.026544         0.272800
 H        -2.703575         2.144913        -0.560671
 H        -1.568686         2.004032        -1.929568
