19
Iteration:  2132
 O        -4.104188         0.252301        -1.371629
 C        -2.677353         0.025284        -1.310184
 C        -2.031270        -0.946300        -2.403591
 C        -2.089606        -1.277569        -0.893713
 C        -0.813013        -1.309695        -0.127588
 C         0.058297        -0.017312        -0.138614
 O         1.236792        -0.124991         0.256116
 C        -0.679070         1.328727        -0.199839
 C        -1.872975         1.308851        -1.219485
 H        -4.506507         0.486650        -2.308695
 H        -2.480513        -1.582758        -3.097991
 H        -1.046100        -0.710901        -2.896835
 H        -2.795240        -2.083965        -0.718013
 H        -1.005908        -1.474328         0.937512
 H        -0.156300        -2.110702        -0.509535
 H        -1.053825         1.459184         0.778132
 H        -0.015163         2.202577        -0.330304
 H        -2.720572         2.067475        -1.088691
 H        -1.644355         1.640733        -2.184787
