19
Iteration:   989
 O        -3.861795         0.411968        -1.165136
 C        -2.584567         0.096580        -1.571237
 C        -2.522331        -1.195237        -2.285896
 C        -1.964462        -1.359894        -0.943797
 C        -0.502048        -1.271232        -0.654397
 C        -0.021818         0.005763        -0.006930
 O         0.992350        -0.049379         0.743916
 C        -0.866096         1.222805        -0.236079
 C        -1.681517         1.292707        -1.519756
 H        -3.650188         1.100076        -0.380087
 H        -3.550176        -1.617535        -2.357713
 H        -1.796706        -1.214281        -3.115322
 H        -2.709290        -1.795711        -0.236785
 H        -0.112817        -2.191413        -0.154420
 H         0.124284        -1.227696        -1.588574
 H        -1.671476         1.252328         0.509738
 H        -0.198311         2.078507        -0.049329
 H        -2.198233         2.306806        -1.518716
 H        -1.178041         1.287246        -2.525449
