19
Iteration:  4573
 O        -4.115164         0.237407        -1.357210
 C        -2.725675         0.003366        -1.394832
 C        -2.048475        -0.739409        -2.569713
 C        -2.028165        -1.310585        -1.095249
 C        -0.774528        -1.285050        -0.154547
 C         0.071465        -0.012206        -0.146516
 O         1.116383        -0.017272         0.522644
 C        -0.482428         1.227012        -0.717226
 C        -1.954994         1.230596        -0.687313
 H        -4.571156        -0.478936        -0.811335
 H        -2.777349        -1.428010        -3.181805
 H        -1.081969        -0.393034        -3.032193
 H        -2.764213        -2.137522        -1.037405
 H        -1.091631        -1.365957         1.008950
 H        -0.123553        -2.257069        -0.356795
 H         0.092574         2.038583        -0.343550
 H        -0.255787         1.156252        -1.788081
 H        -2.415436         1.124928         0.345544
 H        -2.283135         2.140583        -1.053172
