19
Iteration:  3464charge 0 multiplicity 1
 O        -4.001193         0.420248        -1.238777
 C        -2.637791         0.048583        -1.499339
 C        -2.287465        -1.025749        -2.462833
 C        -2.067421        -1.331880        -0.934647
 C        -0.556183        -1.389315        -0.403782
 C         0.004301        -0.055642         0.101770
 O         1.199629         0.101917         0.310768
 C        -0.914223         1.172205        -0.078590
 C        -1.750779         1.301091        -1.380795
 H        -4.268419         0.024368        -0.448089
 H        -2.981599        -1.697412        -2.855447
 H        -1.236732        -0.929182        -2.915439
 H        -2.783673        -1.922636        -0.337024
 H        -0.697224        -1.958343         0.486222
 H         0.193547        -1.929324        -1.007104
 H        -1.557133         1.286828         0.842873
 H        -0.162774         2.037585        -0.051681
 H        -2.610438         2.036833        -1.452046
 H        -1.118957         1.356920        -2.306012
