19
Iteration:  3714
 O        -3.886957         0.360623        -0.863371
 C        -2.580736        -0.022476        -1.399256
 C        -2.567340        -1.148822        -2.402443
 C        -1.857372        -1.313832        -1.094744
 C        -0.320517        -1.257648        -0.826866
 C        -0.101462         0.008572         0.019474
 O         0.758458        -0.062747         0.927980
 C        -0.760651         1.405977        -0.472042
 C        -1.689953         1.205002        -1.584263
 H        -3.728132         0.788909        -0.074001
 H        -3.485696        -1.652825        -2.555870
 H        -2.030440        -1.106150        -3.398875
 H        -2.469053        -1.951157        -0.470954
 H         0.017125        -2.143634        -0.249386
 H         0.430687        -1.086466        -1.629300
 H        -1.469816         1.509692         0.351771
 H        -0.019818         2.244602        -0.419893
 H        -2.173339         2.287050        -1.747160
 H        -1.055874         1.099299        -2.475664
