19
Iteration:   333
 O        -3.998720         0.397324        -1.658799
 C        -2.666484        -0.007176        -1.399625
 C        -2.055532        -1.154156        -2.249640
 C        -2.149061        -1.360612        -0.784166
 C        -0.827498        -1.266391         0.059243
 C         0.037032         0.014329         0.005318
 O         1.245371        -0.031095        -0.199752
 C        -0.772376         1.271686        -0.014252
 C        -1.851817         1.283595        -1.146641
 H        -4.035012         1.300587        -1.458042
 H        -2.787493        -1.778079        -2.847831
 H        -1.093323        -0.896248        -2.636023
 H        -2.867630        -2.088954        -0.470434
 H        -0.989262        -1.572621         1.099343
 H        -0.222820        -2.083671        -0.397408
 H        -1.253098         1.352120         0.940050
 H        -0.132244         2.183253        -0.095486
 H        -2.445178         2.152316        -0.796262
 H        -1.254973         1.473590        -2.057572
