19
Iteration:  4377
 O        -3.975429         0.130543        -1.698804
 C        -2.631714         0.022201        -1.308448
 C        -1.773202        -0.783360        -2.290613
 C        -2.024714        -1.215205        -0.852012
 C        -0.929168        -1.326528         0.217860
 C        -0.050764        -0.101772        -0.108499
 O         1.145421        -0.084399        -0.481286
 C        -0.779274         1.226502         0.051833
 C        -1.976104         1.345513        -0.917052
 H        -4.417302         0.557657        -0.899625
 H        -2.212571        -1.420538        -3.061925
 H        -0.803453        -0.277796        -2.588626
 H        -2.681891        -2.106665        -0.807519
 H        -1.220924        -1.297693         1.248413
 H        -0.438081        -2.217071        -0.028865
 H        -1.025615         1.362621         1.115287
 H        -0.038034         1.998792        -0.194318
 H        -2.789586         1.994770        -0.471390
 H        -1.676133         1.928519        -1.774074
