19
Iteration:  1887charge 0 multiplicity 1
 O        -4.018390         0.322029        -1.284628
 C        -2.623205         0.115933        -1.463320
 C        -2.144206        -1.008579        -2.390568
 C        -2.034229        -1.258728        -0.877786
 C        -0.755802        -1.444661        -0.174332
 C        -0.045346        -0.066051         0.018078
 O         1.190936        -0.035076         0.247317
 C        -0.745052         1.273674        -0.231586
 C        -1.817028         1.394487        -1.283611
 H        -4.458992         0.019564        -2.118665
 H        -2.756756        -1.663781        -3.010280
 H        -1.211495        -0.826784        -2.973102
 H        -2.821523        -1.952165        -0.614921
 H        -0.905380        -2.083141         0.685772
 H        -0.038970        -1.980540        -0.801593
 H        -1.172502         1.382670         0.772601
 H        -0.025068         2.050809        -0.208375
 H        -2.523835         2.166603        -0.782875
 H        -1.430462         1.508697        -2.296999
