19
Iteration:   336charge 0 multiplicity 1
 O        -3.987506         0.400041        -1.640671
 C        -2.684650        -0.013921        -1.399786
 C        -2.061892        -1.138126        -2.258751
 C        -2.137965        -1.382837        -0.762133
 C        -0.837636        -1.259765         0.041687
 C         0.028853         0.026164         0.008664
 O         1.236353        -0.033186        -0.199009
 C        -0.765986         1.283829        -0.005076
 C        -1.854251         1.262791        -1.147166
 H        -4.050885         1.350706        -1.497882
 H        -2.606868        -1.833973        -3.014593
 H        -1.108455        -0.855507        -2.668327
 H        -2.955378        -2.090522        -0.433019
 H        -0.922875        -1.618383         1.107121
 H        -0.221737        -2.065121        -0.379530
 H        -1.280257         1.401568         0.946940
 H        -0.041841         2.089656        -0.147687
 H        -2.426643         2.169984        -0.952833
 H        -1.169775         1.521349        -2.065228
