19
Iteration:  3837
 O        -3.694187         0.279816        -0.730691
 C        -2.500519        -0.012274        -1.417054
 C        -2.664453        -1.145648        -2.426572
 C        -1.868801        -1.255727        -1.111530
 C        -0.267716        -1.188488        -0.928884
 C        -0.067974        -0.050322        -0.006122
 O         0.491186        -0.038001         1.053931
 C        -0.735984         1.389087        -0.455271
 C        -1.700850         1.202025        -1.704059
 H        -3.424621         0.717710         0.107054
 H        -3.604897        -1.773010        -2.500670
 H        -2.323425        -0.943640        -3.421227
 H        -2.246404        -1.940272        -0.315529
 H         0.140236        -2.092972        -0.536066
 H         0.213808        -0.835996        -1.855731
 H        -1.087281         1.780930         0.486200
 H         0.139474         1.992532        -0.769838
 H        -2.365755         2.197632        -1.956935
 H        -1.097691         1.038928        -2.563964
