19
Iteration:   891
 O        -3.725940         0.409399        -0.804732
 C        -2.595184         0.020391        -1.417348
 C        -2.514324        -1.139291        -2.500725
 C        -1.927683        -1.315125        -1.005375
 C        -0.406069        -1.336994        -0.786037
 C        -0.194586        -0.027725        -0.039854
 O         0.552223         0.016429         0.936972
 C        -0.642913         1.343022        -0.508408
 C        -1.596974         1.226138        -1.605781
 H        -3.668861         0.409504         0.283159
 H        -3.522564        -1.690673        -2.685299
 H        -1.649590        -1.083299        -3.143358
 H        -2.484100        -1.994813        -0.338196
 H         0.119441        -2.133331        -0.222348
 H         0.149617        -1.403029        -1.755080
 H        -1.025898         1.754766         0.434197
 H         0.217778         1.959010        -0.866946
 H        -2.293745         2.136593        -1.601089
 H        -1.112227         1.270940        -2.615910
