19
Iteration:  4124charge 0 multiplicity 1
 O        -4.047353         0.184460        -1.151672
 C        -2.607292         0.097178        -1.428986
 C        -2.224505        -0.990825        -2.479638
 C        -2.053227        -1.243089        -0.942907
 C        -0.626141        -1.360168        -0.379722
 C        -0.018647         0.014114        -0.046855
 O         1.145613        -0.014965         0.390353
 C        -0.842466         1.315844        -0.138791
 C        -1.730431         1.295715        -1.411670
 H        -4.021415         0.588000        -0.333138
 H        -3.015738        -1.579566        -2.868264
 H        -1.399727        -1.195215        -3.144544
 H        -2.779020        -1.972803        -0.603098
 H        -0.516044        -2.151123         0.442666
 H        -0.101104        -1.711453        -1.240427
 H        -1.481535         1.270623         0.810300
 H        -0.235109         2.189643        -0.101946
 H        -2.368218         2.223262        -1.389170
 H        -0.988590         1.362980        -2.232120
