19
Iteration:  4994
 O        -4.062099         0.174524        -1.326340
 C        -2.608648        -0.000682        -1.313446
 C        -2.087286        -0.737902        -2.550371
 C        -2.051508        -1.330970        -1.071597
 C        -0.796571        -1.345242        -0.325378
 C         0.011580        -0.012968        -0.099764
 O         1.167459        -0.106307         0.454308
 C        -0.510588         1.300893        -0.517289
 C        -2.016249         1.249399        -0.799817
 H        -4.443976         1.080870        -1.371428
 H        -2.762775        -1.261283        -3.117220
 H        -1.175307        -0.492580        -3.126005
 H        -2.773043        -2.033671        -0.746616
 H        -0.930277        -1.737458         0.705715
 H        -0.175678        -2.004195        -0.804364
 H        -0.372347         2.110357         0.259402
 H         0.062609         1.516259        -1.386623
 H        -2.646438         1.338512         0.220419
 H        -2.319614         2.189544        -1.333848
