19
Iteration:   447
 O        -4.006112         0.400419        -1.500495
 C        -2.655550         0.087135        -1.386624
 C        -2.171302        -1.008250        -2.330281
 C        -2.121929        -1.295786        -0.808447
 C        -0.744627        -1.405888        -0.192544
 C        -0.003321         0.003575         0.044072
 O         1.217678         0.021410         0.131858
 C        -0.821789         1.230041        -0.087629
 C        -1.744126         1.211292        -1.325284
 H        -4.317781         0.313901        -0.460518
 H        -2.936149        -1.511120        -2.898471
 H        -1.126472        -0.909696        -2.756924
 H        -2.924343        -1.940491        -0.429433
 H        -0.686611        -1.937628         0.794176
 H        -0.211020        -1.914514        -0.988615
 H        -1.245661         1.529527         0.871911
 H        -0.094892         1.997589        -0.242712
 H        -2.330134         2.075656        -1.638049
 H        -0.926202         0.969819        -2.110645
