19
Iteration:   816charge 0 multiplicity 1
 O        -3.777988         0.393292        -0.869512
 C        -2.508196         0.012619        -1.437305
 C        -2.643277        -1.185768        -2.309428
 C        -1.871650        -1.322917        -0.958471
 C        -0.318512        -1.161441        -0.978656
 C        -0.073062        -0.034470        -0.026009
 O         0.456041        -0.131627         1.091854
 C        -0.593643         1.392117        -0.509588
 C        -1.620657         1.217445        -1.670831
 H        -3.572345         0.813640        -0.022649
 H        -3.664055        -1.677511        -2.331858
 H        -2.044304        -1.216789        -3.260482
 H        -2.409837        -1.850012        -0.162756
 H         0.300032        -2.067235        -0.830244
 H        -0.057820        -0.986169        -2.015035
 H        -1.225800         1.917996         0.205899
 H         0.186795         2.030537        -0.858008
 H        -2.234594         2.104538        -1.717788
 H        -1.159297         1.008784        -2.629295
