19
Iteration:   967charge 0 multiplicity 1
 O        -3.903189         0.442294        -1.072926
 C        -2.579681        -0.033549        -1.407452
 C        -2.539685        -1.162574        -2.436370
 C        -2.021353        -1.299805        -0.936540
 C        -0.491493        -1.286926        -0.801246
 C        -0.033738         0.028337         0.014790
 O         0.887635         0.027938         0.806068
 C        -0.791310         1.303475        -0.273459
 C        -1.558471         1.151445        -1.502701
 H        -3.826009         0.955949        -0.341918
 H        -3.544297        -1.668565        -2.614435
 H        -1.663590        -1.112155        -3.092497
 H        -2.582834        -1.998746        -0.266424
 H        -0.145519        -2.216507        -0.303326
 H         0.064688        -1.132606        -1.777460
 H        -1.431999         1.513847         0.597219
 H         0.083132         1.991102        -0.241180
 H        -2.219228         1.985990        -1.933625
 H        -0.870677         1.036774        -2.405114
