19
Iteration:  2276charge 0 multiplicity 1
 O        -3.960370         0.391400        -1.617803
 C        -2.559117         0.009437        -1.486322
 C        -2.022783        -1.166963        -2.292311
 C        -2.108689        -1.171906        -0.702140
 C        -0.761984        -1.276817        -0.143707
 C         0.002027        -0.050837        -0.000469
 O         1.184477        -0.041520        -0.245440
 C        -0.943369         1.240060         0.178723
 C        -1.793572         1.366533        -1.055486
 H        -4.439858        -0.490694        -1.978431
 H        -2.823122        -1.649517        -2.902531
 H        -1.052763        -1.227636        -2.782401
 H        -2.994800        -1.714359        -0.293339
 H        -0.903868        -1.580537         0.930890
 H        -0.257387        -2.140851        -0.562969
 H        -1.491928         1.051303         1.224885
 H        -0.340680         2.121857         0.343611
 H        -2.506529         2.315773        -1.104904
 H        -1.082983         1.611787        -1.854261
