19
Iteration:  3696
 O        -3.861297         0.266313        -0.867667
 C        -2.599531        -0.000769        -1.459638
 C        -2.568284        -1.039217        -2.409115
 C        -1.920270        -1.319118        -1.040045
 C        -0.446793        -1.207550        -0.805833
 C        -0.034494         0.066768        -0.026510
 O         0.804031        -0.019057         0.886844
 C        -0.810636         1.323939        -0.263643
 C        -1.573644         1.158623        -1.694600
 H        -3.827855         0.487438         0.013836
 H        -3.479755        -1.588329        -2.590036
 H        -1.916483        -0.907543        -3.316731
 H        -2.436749        -1.925720        -0.300357
 H        -0.163573        -2.021297        -0.196515
 H         0.062119        -1.280148        -1.810143
 H        -1.454201         1.824315         0.487696
 H        -0.077422         2.085541        -0.419156
 H        -2.013515         2.054670        -2.087738
 H        -0.906537         0.801950        -2.453001
