19
Iteration:  3440charge 0 multiplicity 1
 O        -4.037037         0.322185        -1.212857
 C        -2.641189         0.050205        -1.452459
 C        -2.170725        -0.994620        -2.497954
 C        -2.046121        -1.228298        -0.949412
 C        -0.674725        -1.342943        -0.262196
 C        -0.024488        -0.020161        -0.031669
 O         1.186760         0.005298         0.275781
 C        -0.906748         1.233677        -0.098312
 C        -1.681658         1.271916        -1.355776
 H        -4.218889        -0.004164        -0.325102
 H        -2.832930        -1.763784        -2.754080
 H        -1.264332        -0.770281        -3.056381
 H        -2.790802        -1.960579        -0.675080
 H        -0.596278        -1.994555         0.617593
 H        -0.020076        -1.807168        -1.017002
 H        -1.657547         1.208651         0.783236
 H        -0.184330         2.104139         0.040376
 H        -2.443901         2.139481        -1.363194
 H        -1.202590         1.259397        -2.274563
