19
Iteration:   929
 O        -3.917182         0.339223        -0.877373
 C        -2.580515         0.010334        -1.487277
 C        -2.675932        -1.110123        -2.462434
 C        -1.934720        -1.226773        -1.067122
 C        -0.425014        -1.214979        -0.664381
 C        -0.014624         0.010628         0.075051
 O         0.799887        -0.063450         0.970182
 C        -0.667513         1.324844        -0.446022
 C        -1.558333         1.193258        -1.741237
 H        -3.756012         0.169967         0.082095
 H        -3.479408        -1.673792        -2.721148
 H        -2.137055        -1.162995        -3.431867
 H        -2.477273        -1.970429        -0.507503
 H        -0.223404        -2.139876        -0.093259
 H         0.252445        -1.160368        -1.546498
 H        -1.518801         1.638070         0.217269
 H        -0.047125         2.248776        -0.344850
 H        -1.969074         2.172259        -1.721345
 H        -1.061263         0.902831        -2.653237
