19
Iteration:    33
 O        -3.935317         0.159821        -1.484665
 C        -2.618011        -0.011712        -1.451142
 C        -2.119858        -1.045276        -2.419504
 C        -2.063194        -1.300554        -0.942311
 C        -1.038007        -1.179278         0.091757
 C         0.007544         0.027939         0.035929
 O         1.209663        -0.118076        -0.094626
 C        -0.649366         1.393450        -0.052069
 C        -1.768686         1.379373        -1.198397
 H        -4.345464        -0.350051        -0.668349
 H        -2.861980        -1.607519        -2.893383
 H        -1.319736        -0.583058        -2.923502
 H        -2.806857        -2.039520        -0.690197
 H        -1.555576        -1.287042         1.065654
 H        -0.469999        -2.094569         0.003883
 H        -1.135417         1.533308         0.923345
 H         0.199870         2.066076        -0.184924
 H        -2.446837         2.152670        -0.889032
 H        -1.209492         1.651153        -2.058342
