19
Iteration:  2013
 O        -3.877856         0.284060        -1.165006
 C        -2.537744         0.053110        -1.559973
 C        -2.120986        -1.119264        -2.447922
 C        -2.047091        -1.162267        -0.936975
 C        -0.820286        -1.310230        -0.043200
 C        -0.101111        -0.057681         0.020991
 O         1.097425         0.004570        -0.065238
 C        -0.975486         1.255707         0.092189
 C        -1.605529         1.284852        -1.345547
 H        -4.349700         0.637353        -2.007869
 H        -2.959465        -1.677727        -2.860915
 H        -1.299348        -0.960571        -3.171334
 H        -2.753761        -1.951076        -0.707607
 H        -1.224933        -1.551745         0.936297
 H        -0.154564        -2.061480        -0.490736
 H        -1.785818         1.082362         0.906582
 H        -0.337460         2.100605         0.483168
 H        -2.119883         2.237655        -1.515932
 H        -0.589739         1.476916        -2.034541
