19
Iteration:  2589charge 0 multiplicity 1
 O        -3.989636         0.414983        -1.230325
 C        -2.589122         0.093793        -1.471742
 C        -2.172421        -1.077730        -2.392230
 C        -2.104693        -1.308894        -0.862542
 C        -0.699179        -1.354637        -0.265826
 C         0.002679         0.012398        -0.098149
 O         1.180131         0.052105         0.127053
 C        -1.044806         1.230747         0.089299
 C        -1.590661         1.234338        -1.370261
 H        -4.372610         0.443819        -2.152814
 H        -2.848225        -1.754982        -2.962330
 H        -1.114134        -1.048196        -2.621615
 H        -2.807745        -1.997818        -0.403295
 H        -0.650221        -1.908346         0.682366
 H        -0.149476        -2.133505        -0.846817
 H        -1.863065         0.903117         0.828963
 H        -0.496061         2.107139         0.390847
 H        -2.169176         2.116770        -1.497547
 H        -0.761955         1.132524        -2.096623
