19
Iteration:  3701charge 0 multiplicity 1
 O        -3.878492         0.272351        -0.869401
 C        -2.612112         0.069601        -1.456732
 C        -2.567596        -1.061272        -2.386178
 C        -1.904722        -1.335707        -1.070263
 C        -0.403560        -1.221187        -0.834528
 C        -0.046479         0.054166         0.027117
 O         0.787462        -0.037308         0.882045
 C        -0.823305         1.364194        -0.305579
 C        -1.559939         1.136237        -1.688463
 H        -3.771964         0.610381         0.106256
 H        -3.543822        -1.544187        -2.577764
 H        -1.863692        -0.947185        -3.178826
 H        -2.357081        -2.034380        -0.351161
 H        -0.075361        -2.039348        -0.103586
 H         0.144518        -1.369224        -1.753402
 H        -1.420771         1.757308         0.546275
 H        -0.033888         2.165357        -0.462574
 H        -2.291342         1.958399        -2.011952
 H        -0.892852         0.889313        -2.600068
