19
Iteration:  4073charge 0 multiplicity 1
 O        -3.936944         0.418327        -1.148504
 C        -2.659831        -0.021196        -1.493392
 C        -2.541853        -1.172335        -2.490235
 C        -1.976355        -1.353355        -1.015859
 C        -0.487571        -1.290024        -0.527120
 C         0.039878         0.081693         0.031451
 O         1.093907         0.065271         0.531724
 C        -0.874502         1.296473        -0.034522
 C        -1.672274         1.198854        -1.460045
 H        -4.043722         0.102173        -0.211369
 H        -3.338669        -1.735149        -2.887286
 H        -1.970310        -0.734455        -3.432790
 H        -2.624374        -1.998362        -0.370300
 H        -0.379242        -2.132653         0.170739
 H         0.138635        -1.635302        -1.382895
 H        -1.584388         1.214144         0.771721
 H        -0.254082         2.165191         0.127167
 H        -2.142311         2.122227        -1.552952
 H        -0.808126         1.301973        -2.265772
