19
Iteration:  2061charge 0 multiplicity 1
 O        -4.025825         0.319057        -1.397326
 C        -2.608591        -0.002841        -1.365382
 C        -2.093647        -1.037527        -2.386375
 C        -2.101694        -1.294348        -0.854941
 C        -0.775294        -1.275420        -0.176233
 C        -0.019476         0.028252        -0.123403
 O         1.195980        -0.032873         0.109374
 C        -0.799599         1.235608        -0.013456
 C        -1.769923         1.249036        -1.229004
 H        -4.143313         1.049112        -2.113406
 H        -2.802687        -1.717529        -2.945043
 H        -1.192929        -0.895082        -2.941165
 H        -2.869286        -2.034934        -0.522911
 H        -0.990631        -1.338879         0.925405
 H        -0.148259        -2.104234        -0.544246
 H        -1.530258         1.188139         0.869330
 H        -0.170588         2.111483         0.121553
 H        -2.291273         2.158446        -1.171655
 H        -1.127823         1.448719        -2.078421
