19
Iteration:  3739charge 0 multiplicity 1
 O        -3.834605         0.307117        -0.863048
 C        -2.621391        -0.007722        -1.526300
 C        -2.572576        -1.150628        -2.341383
 C        -1.935864        -1.256483        -1.023186
 C        -0.332607        -1.182144        -0.969184
 C         0.022778         0.008508         0.006298
 O         0.658769        -0.002444         1.034666
 C        -0.687635         1.280041        -0.439293
 C        -1.717079         1.174040        -1.593187
 H        -3.579359         0.724388        -0.028579
 H        -3.515915        -1.681860        -2.616301
 H        -1.914324        -1.120491        -3.222743
 H        -2.538356        -1.928307        -0.406398
 H         0.041857        -2.017299        -0.441569
 H         0.217885        -1.077808        -1.967697
 H        -0.986756         1.764181         0.488590
 H         0.179429         1.805798        -0.795084
 H        -2.365492         2.106821        -1.429684
 H        -1.173019         1.439026        -2.445869
