19
Iteration:  4764
 O        -4.011596         0.214450        -0.905189
 C        -2.654307         0.046543        -1.369542
 C        -2.324597        -0.729135        -2.659711
 C        -1.950727        -1.293123        -1.301106
 C        -0.533654        -1.362052        -0.520044
 C         0.047672        -0.040660        -0.111079
 O         0.687663         0.042320         0.980801
 C        -0.358673         1.165681        -0.876173
 C        -1.830101         1.274513        -0.901896
 H        -4.429963        -0.625513        -0.985430
 H        -3.109523        -1.224390        -3.155748
 H        -1.543333        -0.443586        -3.308857
 H        -2.656408        -2.061554        -0.944086
 H        -0.663082        -2.038730         0.387232
 H         0.255241        -1.908868        -1.177531
 H         0.265099         2.057445        -0.602970
 H        -0.003645         1.025332        -1.892538
 H        -2.288944         1.530588         0.041338
 H        -1.968399         2.126687        -1.450722
