19
Iteration:   298
 O        -3.920776         0.123016        -1.713699
 C        -2.584842         0.148209        -1.479489
 C        -2.119086        -1.114263        -2.173824
 C        -2.229701        -1.100871        -0.721450
 C        -0.858400        -1.281124         0.064450
 C         0.045231        -0.090857        -0.138838
 O         1.268233        -0.074543        -0.186741
 C        -0.798273         1.153774        -0.011239
 C        -1.816353         1.508523        -1.099970
 H        -4.284886         0.227733        -0.912801
 H        -2.713066        -1.632024        -2.884312
 H        -1.041431        -1.014353        -2.603533
 H        -3.028981        -1.621567        -0.224297
 H        -1.048845        -1.335252         1.138162
 H        -0.197681        -2.143802        -0.237075
 H        -1.307114         0.964328         0.962286
 H        -0.180741         2.069595         0.007476
 H        -2.569361         2.375119        -0.943596
 H        -1.407144         1.928073        -1.992448
