19
Iteration:  1634charge 0 multiplicity 1
 O        -4.000516         0.320082        -1.483112
 C        -2.572118         0.064654        -1.516755
 C        -2.028841        -1.018183        -2.371507
 C        -2.091542        -1.304552        -0.912781
 C        -0.868979        -1.281733        -0.063374
 C        -0.028366        -0.008873        -0.011790
 O         1.231218        -0.108181        -0.099664
 C        -0.802617         1.267671         0.110452
 C        -1.786283         1.354764        -1.133788
 H        -4.439382        -0.373114        -1.057121
 H        -2.859663        -1.411070        -2.897916
 H        -0.959066        -0.932282        -2.724831
 H        -2.976016        -1.866978        -0.642584
 H        -1.246623        -1.553299         0.982318
 H        -0.114912        -2.062667        -0.315621
 H        -1.535251         1.254277         0.963523
 H        -0.202789         2.198922         0.099393
 H        -2.609102         2.142158        -1.085437
 H        -1.159942         1.610913        -2.012542
