19
Iteration:  4549
 O        -4.130138         0.238688        -1.500654
 C        -2.706019         0.025248        -1.329709
 C        -2.009156        -0.651100        -2.458017
 C        -1.998108        -1.317313        -1.122542
 C        -0.872742        -1.307131        -0.080110
 C         0.076902        -0.008530        -0.077061
 O         1.284287         0.003796         0.428945
 C        -0.517286         1.141574        -0.773575
 C        -2.079610         1.136354        -0.647918
 H        -4.534936        -0.133453        -0.629170
 H        -2.750915        -1.037008        -3.040205
 H        -1.188512        -0.113313        -2.936194
 H        -2.771248        -2.083995        -1.066609
 H        -1.212422        -1.356405         1.002526
 H        -0.243995        -2.283679        -0.250312
 H        -0.018628         2.067103        -0.336405
 H        -0.054895         1.026822        -1.719050
 H        -2.408637         1.134376         0.374426
 H        -2.570039         1.952127        -1.178965
