19
Iteration:  4399
 O        -3.964906         0.000226        -1.672337
 C        -2.561035         0.133548        -1.341906
 C        -1.823328        -0.787981        -2.269838
 C        -2.099611        -1.239681        -0.863175
 C        -0.861946        -1.352738         0.075211
 C        -0.029784        -0.057553        -0.053964
 O         1.119230        -0.187593        -0.367970
 C        -0.746362         1.280525        -0.046682
 C        -2.020038         1.475175        -0.908575
 H        -4.354412         0.285153        -0.817524
 H        -2.387187        -1.141699        -3.103070
 H        -0.693485        -0.560013        -2.487335
 H        -2.847919        -1.971413        -0.578557
 H        -1.182156        -1.382974         1.082499
 H        -0.190664        -2.119412        -0.130624
 H        -1.013006         1.455450         0.996478
 H        -0.019906         2.083765        -0.276507
 H        -2.793164         2.005164        -0.264741
 H        -1.845085         2.191708        -1.695061
