19
Iteration:  4021
 O        -3.927578         0.300680        -1.021623
 C        -2.556096         0.069055        -1.438911
 C        -2.489542        -1.156510        -2.383920
 C        -2.007670        -1.309901        -1.009145
 C        -0.451225        -1.208179        -0.760731
 C        -0.058895        -0.023326         0.003504
 O         0.982751         0.061558         0.707758
 C        -0.895325         1.243036        -0.230763
 C        -1.623033         1.249013        -1.541747
 H        -3.777768         0.685072        -0.054213
 H        -3.410892        -1.615853        -2.680652
 H        -1.660589        -1.267304        -3.180495
 H        -2.590514        -1.749616        -0.167080
 H        -0.311857        -2.086236        -0.191524
 H         0.199925        -1.526396        -1.619337
 H        -1.708590         1.238914         0.533283
 H        -0.157913         2.082296         0.084492
 H        -2.098318         2.221650        -1.796763
 H        -0.955377         1.147056        -2.337064
