19
Iteration:  4787charge 0 multiplicity 1
 O        -3.931618         0.226298        -0.905684
 C        -2.622804         0.025954        -1.382681
 C        -2.229817        -0.781936        -2.609715
 C        -1.994632        -1.264969        -1.221973
 C        -0.603251        -1.324469        -0.601819
 C        -0.044797        -0.076381         0.007854
 O         0.716532        -0.028751         0.921939
 C        -0.362487         1.218942        -0.886749
 C        -1.918423         1.327836        -1.012310
 H        -4.149014        -0.649709        -0.410032
 H        -3.027645        -1.279816        -3.145627
 H        -1.511748        -0.414132        -3.189648
 H        -2.647853        -2.138216        -0.948365
 H        -0.618845        -2.136209         0.148194
 H         0.186216        -1.693766        -1.389081
 H         0.204324         2.084855        -0.331281
 H         0.324639         1.211542        -1.743048
 H        -2.298839         1.472705        -0.029895
 H        -2.284465         2.167004        -1.491526
