19
Iteration:  3652
 O        -3.871490         0.427979        -1.015602
 C        -2.594389         0.014409        -1.458602
 C        -2.554974        -1.201807        -2.487172
 C        -1.931154        -1.317603        -1.001796
 C        -0.411790        -1.257927        -0.703775
 C        -0.021639        -0.006880         0.063695
 O         1.020361        -0.010106         0.792395
 C        -0.934622         1.290074        -0.294821
 C        -1.720103         1.296316        -1.560956
 H        -4.041622         0.166011        -0.148837
 H        -3.403095        -1.819390        -2.571489
 H        -1.951559        -0.925416        -3.420855
 H        -2.496172        -1.963391        -0.323023
 H        -0.135170        -2.011390        -0.029565
 H         0.126701        -1.454057        -1.664233
 H        -1.451390         1.461762         0.694566
 H        -0.191893         2.079523        -0.283135
 H        -2.360106         2.100509        -1.747174
 H        -1.019570         1.167664        -2.380943
