19
Iteration:  1551charge 0 multiplicity 1
 O        -4.023642         0.140624        -1.618273
 C        -2.624186         0.061352        -1.471317
 C        -2.079386        -0.919314        -2.404655
 C        -2.083303        -1.248888        -0.885048
 C        -0.915407        -1.279535        -0.008544
 C         0.065379        -0.029096        -0.042454
 O         1.280529        -0.194171        -0.003802
 C        -0.703708         1.317643        -0.043484
 C        -1.888983         1.382825        -0.996880
 H        -4.598312         0.693246        -0.933962
 H        -2.848331        -1.438968        -3.053248
 H        -1.161718        -0.750952        -3.021050
 H        -2.772183        -2.065939        -0.717089
 H        -1.214871        -1.386455         1.017992
 H        -0.219528        -2.096868        -0.290185
 H        -1.117043         1.745264         0.963190
 H         0.092369         2.044584        -0.321003
 H        -2.534486         1.971030        -0.418808
 H        -1.538398         1.988348        -1.854814
