19
Iteration:   349charge 0 multiplicity 1
 O        -4.029448         0.344102        -1.531457
 C        -2.630295        -0.042325        -1.422451
 C        -2.027214        -1.035026        -2.300926
 C        -2.179469        -1.314054        -0.723757
 C        -0.808311        -1.330281        -0.012617
 C        -0.065013        -0.016907        -0.049973
 O         1.156559        -0.034148        -0.164155
 C        -0.774058         1.347695         0.025679
 C        -1.716944         1.202514        -1.211281
 H        -3.985993         1.422414        -1.511904
 H        -2.435188        -1.673074        -3.106519
 H        -0.967138        -0.682172        -2.374374
 H        -2.935949        -2.030755        -0.287574
 H        -1.003437        -1.445656         1.097938
 H        -0.038340        -1.990978        -0.397647
 H        -1.194686         1.660210         1.036015
 H        -0.038162         2.101111        -0.227074
 H        -2.476080         1.966706        -1.353856
 H        -1.114648         1.246237        -2.208208
