19
Iteration:  4920
 O        -4.142427         0.012173        -1.083708
 C        -2.676213         0.094242        -1.210737
 C        -2.074879        -0.564366        -2.568141
 C        -2.011680        -1.238444        -1.197036
 C        -0.694788        -1.367686        -0.373192
 C         0.019962        -0.129903        -0.112569
 O         0.916490        -0.032893         0.741688
 C        -0.347198         1.147094        -0.880801
 C        -1.938015         1.378412        -0.813311
 H        -4.510052         0.116041        -2.046626
 H        -2.820668        -0.783036        -3.229590
 H        -1.137406        -0.224097        -3.024008
 H        -2.641229        -2.084590        -1.081158
 H        -0.879205        -1.884365         0.527151
 H         0.078335        -2.021247        -0.979172
 H         0.279815         2.072877        -0.540699
 H        -0.118542         0.814413        -1.884815
 H        -2.283390         1.557173         0.227746
 H        -2.254980         2.209578        -1.385089
