19
Iteration:  4451charge 0 multiplicity 1
 O        -4.045799         0.259460        -1.647438
 C        -2.710966        -0.002680        -1.370882
 C        -1.945688        -0.818241        -2.454372
 C        -2.097741        -1.298507        -0.903206
 C        -0.861299        -1.308676         0.088083
 C         0.057283        -0.077274        -0.102613
 O         1.365875        -0.055052        -0.083838
 C        -0.612560         1.242674        -0.196836
 C        -2.123207         1.291169        -0.829188
 H        -4.616084        -0.139086        -0.897323
 H        -2.519964        -1.406402        -3.102250
 H        -1.098169        -0.302669        -2.816382
 H        -2.780204        -2.127326        -0.649087
 H        -1.223679        -1.232392         1.166689
 H        -0.176212        -2.250098        -0.015443
 H        -0.669983         1.560900         0.870580
 H         0.001325         1.948140        -0.663252
 H        -2.950333         1.670376        -0.119735
 H        -2.112622         1.943958        -1.662798
