19
Iteration:  1958charge 0 multiplicity 1
 O        -4.052234         0.340594        -1.377341
 C        -2.640487         0.095478        -1.499780
 C        -2.173775        -1.073190        -2.379885
 C        -2.049036        -1.207046        -0.885967
 C        -0.695230        -1.380667        -0.126566
 C        -0.002551        -0.096306         0.029573
 O         1.204107         0.090467         0.007280
 C        -0.910921         1.213888         0.045852
 C        -1.684861         1.217745        -1.269815
 H        -4.147340         1.126734        -1.937633
 H        -2.917454        -1.784920        -2.905331
 H        -1.266640        -1.037008        -2.912314
 H        -2.948429        -1.709688        -0.495614
 H        -1.051781        -1.751947         0.844080
 H        -0.056957        -2.217426        -0.469804
 H        -1.553137         1.188829         0.991225
 H        -0.293466         2.157620         0.197093
 H        -2.138974         2.097795        -1.426118
 H        -0.738091         1.078731        -1.724075
