19
Iteration:  2229charge 0 multiplicity 1
 O        -4.047843         0.352729        -1.423909
 C        -2.662052         0.029798        -1.450277
 C        -1.984430        -0.998905        -2.308850
 C        -2.091036        -1.238469        -0.864006
 C        -0.817950        -1.334699         0.017029
 C        -0.001653        -0.086305        -0.048039
 O         1.258911         0.002640        -0.054293
 C        -0.845007         1.194131        -0.012214
 C        -1.841743         1.309099        -1.216567
 H        -4.172651         0.257497        -2.427475
 H        -2.648255        -1.652468        -2.927116
 H        -1.011773        -0.932985        -2.835604
 H        -2.835545        -2.047194        -0.839271
 H        -0.880677        -1.484942         1.137546
 H        -0.214001        -2.157055        -0.420110
 H        -1.266254         1.306054         1.102248
 H        -0.066766         2.016068        -0.120851
 H        -2.599605         2.190227        -1.065461
 H        -1.319534         1.606812        -2.152676
