19
Iteration:  2775
 O        -4.026791         0.144159        -1.420199
 C        -2.609432         0.073092        -1.379852
 C        -2.210603        -0.958966        -2.423239
 C        -2.145705        -1.221180        -0.872337
 C        -0.723005        -1.427026        -0.197636
 C        -0.001508        -0.063890        -0.020069
 O         1.220042         0.034709         0.152670
 C        -0.832357         1.282661        -0.028792
 C        -1.651449         1.389698        -1.294162
 H        -4.382657         0.736398        -0.687037
 H        -3.078692        -1.363382        -2.997500
 H        -1.356044        -0.636870        -3.049880
 H        -2.839806        -2.018133        -0.573735
 H        -0.778267        -1.915648         0.753252
 H        -0.220442        -2.185117        -0.809583
 H        -1.483136         1.166993         0.838960
 H        -0.121820         2.056685         0.111256
 H        -2.237582         2.263299        -1.338337
 H        -1.065698         1.419350        -2.170240
