19
Iteration:   952
 O        -3.896215         0.365707        -1.005832
 C        -2.658515         0.052893        -1.469259
 C        -2.553273        -1.091571        -2.369922
 C        -1.972063        -1.267628        -1.043795
 C        -0.474992        -1.219563        -0.795745
 C        -0.052432        -0.001173         0.064078
 O         0.899374        -0.014549         0.891810
 C        -0.755216         1.336791        -0.288804
 C        -1.576926         1.047163        -1.623041
 H        -3.927292         0.648115        -0.008698
 H        -3.395637        -1.649497        -2.659578
 H        -2.015816        -1.056581        -3.287915
 H        -2.518089        -1.870428        -0.352301
 H        -0.169419        -2.065217        -0.189347
 H         0.023065        -1.266492        -1.787530
 H        -1.326403         1.819852         0.537159
 H        -0.100608         2.181466        -0.614751
 H        -1.841436         2.034777        -1.993880
 H        -0.831823         0.604248        -2.261249
