19
Iteration:  4941charge 0 multiplicity 1
 O        -4.050261         0.009035        -1.120340
 C        -2.721552         0.136452        -1.334188
 C        -2.100924        -0.552288        -2.566151
 C        -1.990704        -1.195810        -1.151793
 C        -0.724074        -1.351945        -0.332949
 C         0.008163        -0.090932         0.020223
 O         1.036166        -0.130586         0.673889
 C        -0.449196         1.140526        -0.883707
 C        -1.969152         1.355747        -0.828930
 H        -4.669539        -0.062519        -1.844667
 H        -2.702300        -1.128702        -3.139595
 H        -1.317320         0.065102        -2.973200
 H        -2.673924        -2.001714        -1.033067
 H        -0.962369        -1.861926         0.555765
 H         0.070790        -1.973398        -0.724599
 H        -0.032468         2.148635        -0.483919
 H        -0.177249         0.993503        -1.871229
 H        -2.406030         1.482693         0.229412
 H        -2.102860         2.253063        -1.406443
