19
Iteration:  2090charge 0 multiplicity 1
 O        -4.022004         0.198741        -1.412971
 C        -2.552624         0.059115        -1.517458
 C        -2.145794        -1.070522        -2.393219
 C        -2.185147        -1.144579        -0.807080
 C        -0.749670        -1.409702        -0.166037
 C         0.081468        -0.057794         0.018293
 O         1.283712        -0.070012         0.164318
 C        -0.750770         1.306488        -0.097426
 C        -1.934322         1.415689        -1.208431
 H        -4.348359         0.510865        -2.222711
 H        -2.929506        -1.645013        -2.810798
 H        -1.204035        -1.099569        -3.017343
 H        -3.022823        -1.679173        -0.368698
 H        -0.851540        -1.820318         0.821440
 H        -0.230964        -2.038795        -0.888418
 H        -1.354723         1.395618         0.825233
 H         0.005682         2.093215        -0.107040
 H        -2.535282         2.267185        -0.871988
 H        -1.430891         2.045814        -2.115159
