19
Iteration:   797
 O        -3.720673         0.464460        -0.803680
 C        -2.493484        -0.019116        -1.406280
 C        -2.521720        -1.211309        -2.327527
 C        -1.886008        -1.259489        -0.941396
 C        -0.358607        -1.165230        -0.936351
 C        -0.068304         0.077820        -0.128046
 O         0.408277        -0.195332         0.985276
 C        -0.704525         1.348647        -0.503809
 C        -1.661373         1.178296        -1.688286
 H        -3.454372         0.641270         0.049545
 H        -3.530458        -1.736633        -2.492447
 H        -1.717197        -1.074548        -3.005875
 H        -2.432425        -1.839186        -0.125987
 H        -0.140527        -2.113731        -0.338705
 H         0.275343        -1.197454        -1.856135
 H        -1.094401         1.748092         0.496744
 H         0.210453         1.983224        -0.723000
 H        -2.366880         1.943004        -1.912704
 H        -1.007501         1.223579        -2.573463
