19
Iteration:  4544charge 0 multiplicity 1
 O        -4.102940         0.202034        -1.515319
 C        -2.722455         0.000458        -1.317557
 C        -1.984910        -0.589060        -2.460873
 C        -2.010080        -1.302522        -1.056246
 C        -0.850570        -1.297750        -0.065540
 C         0.091580        -0.032393        -0.102579
 O         1.249904        -0.011307         0.396629
 C        -0.532275         1.145742        -0.719396
 C        -2.069437         1.135434        -0.668196
 H        -4.544545         0.008206        -0.720468
 H        -2.850794        -1.138432        -3.038463
 H        -1.143871        -0.101149        -2.934323
 H        -2.796308        -2.068695        -1.116700
 H        -1.252938        -1.318900         0.930509
 H        -0.308433        -2.150437        -0.289240
 H        -0.031979         2.052233        -0.382568
 H        -0.212445         1.025301        -1.827772
 H        -2.408576         1.140179         0.412508
 H        -2.422409         2.059563        -1.241960
