19
Iteration:  1966
 O        -3.977022         0.359597        -1.328450
 C        -2.587824         0.065848        -1.484290
 C        -2.119741        -1.068899        -2.395067
 C        -2.090503        -1.253208        -0.882328
 C        -0.804042        -1.420215        -0.098086
 C        -0.044344        -0.083335         0.006273
 O         1.171184         0.142994        -0.013562
 C        -0.945244         1.190859         0.071438
 C        -1.628862         1.226987        -1.285054
 H        -4.089013         1.092193        -1.859128
 H        -2.851206        -1.842180        -2.720336
 H        -1.275668        -0.882166        -3.050784
 H        -2.947496        -1.894443        -0.548776
 H        -0.916993        -1.752864         0.929908
 H        -0.130077        -2.063576        -0.669689
 H        -1.494505         1.158744         0.997156
 H        -0.252786         2.042607         0.142508
 H        -2.118159         2.309047        -1.445060
 H        -0.948593         1.178913        -2.291561
