19
Iteration:   523charge 0 multiplicity 1
 O        -3.982977         0.481329        -1.139340
 C        -2.672444         0.041857        -1.468076
 C        -2.296805        -1.048626        -2.365681
 C        -2.109356        -1.366304        -0.956113
 C        -0.628474        -1.366318        -0.335784
 C        -0.058173        -0.030322         0.047727
 O         1.114675         0.077148         0.355600
 C        -0.790815         1.235072        -0.143520
 C        -1.600140         1.217542        -1.424298
 H        -4.553546         0.072071        -1.877957
 H        -3.143804        -1.548715        -2.950124
 H        -1.450066        -1.021413        -3.032365
 H        -2.777995        -2.014022        -0.422454
 H        -0.345773        -2.137500         0.425153
 H         0.056599        -1.670933        -1.136133
 H        -1.520070         1.324595         0.633956
 H        -0.125800         2.063280        -0.053273
 H        -2.076957         2.096429        -1.807170
 H        -0.862401         0.999108        -2.262025
