19
Iteration:  1744charge 0 multiplicity 1
 O        -3.988966         0.298859        -1.368626
 C        -2.559899         0.036168        -1.541858
 C        -2.301538        -1.079912        -2.421603
 C        -2.094197        -1.218115        -0.920759
 C        -0.770417        -1.364618        -0.079306
 C         0.014916        -0.000223         0.012737
 O         1.207835         0.047382         0.031084
 C        -0.818246         1.194151         0.165192
 C        -1.623967         1.343302        -1.298937
 H        -4.356137         0.266376        -2.303606
 H        -3.146948        -1.864059        -2.728170
 H        -1.514306        -1.044956        -3.190661
 H        -2.918798        -1.857308        -0.595137
 H        -1.097671        -1.638361         0.946772
 H        -0.011112        -2.052363        -0.476453
 H        -1.666757         1.121895         1.000044
 H        -0.353682         2.168493         0.333603
 H        -2.327295         2.250059        -1.275642
 H        -0.824843         1.466927        -2.089873
