19
Iteration:  1159
 O        -3.960953         0.395845        -1.504744
 C        -2.580146         0.035661        -1.462728
 C        -2.216475        -1.047217        -2.370373
 C        -2.187906        -1.347939        -0.840868
 C        -0.774893        -1.412200        -0.254951
 C         0.060367         0.051039        -0.026214
 O         1.236149         0.026609         0.163746
 C        -0.817810         1.265609        -0.024656
 C        -1.761338         1.224643        -1.216024
 H        -4.192464         0.506076        -0.521762
 H        -3.001287        -1.523226        -2.902923
 H        -1.214977        -0.740874        -2.768878
 H        -3.054427        -1.947129        -0.467858
 H        -0.978703        -1.784392         0.768020
 H         0.033160        -2.005365        -0.719429
 H        -1.434910         1.134156         0.824864
 H        -0.144939         2.149773         0.136510
 H        -2.522767         2.033092        -1.263002
 H        -1.112600         1.466879        -2.083798
