19
Iteration:  4490
 O        -4.011719         0.044704        -1.531591
 C        -2.625762         0.004407        -1.388984
 C        -1.950284        -0.732184        -2.389088
 C        -2.102616        -1.243464        -0.934032
 C        -0.828408        -1.258662        -0.069962
 C        -0.034543        -0.020798        -0.078829
 O         1.236247        -0.199985         0.103841
 C        -0.583354         1.302974        -0.447242
 C        -2.131346         1.345448        -0.741236
 H        -4.429742         0.418451        -0.805395
 H        -2.359690        -1.162177        -3.401454
 H        -0.935808        -0.402156        -2.613153
 H        -2.949782        -1.958888        -0.872812
 H        -1.040321        -1.393586         0.969674
 H        -0.261312        -2.072331        -0.395828
 H        -0.265956         1.923247         0.433387
 H         0.098546         1.701729        -1.274935
 H        -2.615097         1.720816         0.117767
 H        -2.321297         2.199665        -1.523453
