19
Iteration:  1025
 O        -3.973330         0.329635        -1.228844
 C        -2.675626         0.106385        -1.570583
 C        -2.475673        -1.117077        -2.353956
 C        -2.080991        -1.241477        -0.950041
 C        -0.620843        -1.274970        -0.579126
 C         0.037743         0.031490         0.038350
 O         1.114361         0.010062         0.624866
 C        -0.806475         1.217558        -0.138838
 C        -1.552005         1.208969        -1.465001
 H        -4.161240         0.517122        -0.203448
 H        -3.376363        -1.603738        -2.691371
 H        -1.714270        -1.270092        -3.200886
 H        -2.693575        -1.763317        -0.231429
 H        -0.356835        -2.061151         0.175522
 H        -0.027183        -1.468853        -1.508784
 H        -1.512858         1.172480         0.711291
 H        -0.188300         2.077418         0.065196
 H        -1.962970         2.159375        -1.781901
 H        -0.743878         0.921503        -2.219937
