19
Iteration:   590charge 0 multiplicity 1
 O        -3.806952         0.371734        -1.057126
 C        -2.509600         0.101099        -1.639647
 C        -2.553792        -1.162422        -2.416630
 C        -1.999682        -1.187085        -0.995267
 C        -0.589518        -1.432902        -0.530269
 C        -0.010309        -0.039261         0.046602
 O         1.050600         0.066009         0.639491
 C        -0.943808         1.256915        -0.199094
 C        -1.633567         1.217895        -1.547602
 H        -3.558845         0.735224        -0.232004
 H        -3.574658        -1.578349        -2.609526
 H        -1.932652        -1.431421        -3.280141
 H        -2.783210        -1.639298        -0.477997
 H        -0.557854        -1.935854         0.462556
 H         0.013095        -1.942316        -1.281747
 H        -1.693421         1.269024         0.568479
 H        -0.356708         2.132884         0.084580
 H        -2.130887         2.211433        -1.496138
 H        -0.999902         1.407969        -2.451227
