19
Iteration:   331charge 0 multiplicity 1
 O        -4.006681         0.384015        -1.671283
 C        -2.652459        -0.003600        -1.399977
 C        -2.057695        -1.162349        -2.245201
 C        -2.155456        -1.338588        -0.793231
 C        -0.821147        -1.275696         0.067005
 C         0.040889         0.004834        -0.001649
 O         1.250025        -0.029836        -0.198865
 C        -0.774576         1.265632        -0.020979
 C        -1.843299         1.294185        -1.145679
 H        -4.037485         1.405314        -1.402842
 H        -2.857240        -1.700062        -2.722970
 H        -1.047715        -0.930344        -2.648823
 H        -2.825881        -2.100730        -0.477545
 H        -1.039479        -1.532869         1.099502
 H        -0.210673        -2.081527        -0.389757
 H        -1.265842         1.321154         0.978752
 H        -0.194537         2.219770        -0.068331
 H        -2.474487         2.130911        -0.735121
 H        -1.337269         1.464492        -2.049900
