19
Iteration:   860charge 0 multiplicity 1
 O        -3.840449         0.313253        -0.824390
 C        -2.636126         0.034749        -1.409350
 C        -2.618006        -1.079593        -2.402944
 C        -1.927946        -1.230292        -1.031058
 C        -0.318466        -1.189774        -0.872598
 C         0.022067         0.050584         0.019473
 O         0.532596        -0.159540         1.136925
 C        -0.608611         1.375168        -0.615737
 C        -1.614358         1.156007        -1.703184
 H        -3.730563         0.610728         0.024209
 H        -3.664445        -1.584444        -2.536794
 H        -2.078650        -1.176539        -3.345246
 H        -2.344497        -1.936650        -0.283580
 H         0.194813        -2.107947        -0.466437
 H         0.220113        -1.049907        -1.819892
 H        -0.876265         1.836963         0.336862
 H         0.201045         1.936601        -1.024720
 H        -2.179800         2.036484        -1.911845
 H        -0.983371         0.851636        -2.535590
