19
Iteration:  4228
 O        -3.959178         0.146731        -1.476823
 C        -2.568741         0.088707        -1.382101
 C        -2.066961        -0.970212        -2.390493
 C        -2.106044        -1.301896        -0.884707
 C        -0.798153        -1.320709        -0.111411
 C         0.012955        -0.073811        -0.011643
 O         1.161643        -0.002446        -0.158151
 C        -0.839526         1.316788         0.088952
 C        -1.800043         1.353504        -1.135642
 H        -4.313528         0.277809        -0.527978
 H        -2.690108        -1.543767        -3.185076
 H        -1.053508        -0.770965        -2.713554
 H        -2.868901        -2.024420        -0.575394
 H        -1.142070        -1.326252         0.947577
 H        -0.174517        -2.189118        -0.515257
 H        -1.573974         1.465295         0.867663
 H        -0.066193         2.165015         0.095303
 H        -2.616086         2.094956        -0.956988
 H        -1.301434         1.709688        -2.162439
