19
Iteration:  3259
 O        -3.982259         0.173876        -1.584808
 C        -2.583645         0.105217        -1.428836
 C        -1.889192        -0.854519        -2.313103
 C        -2.068335        -1.223351        -0.758069
 C        -0.833732        -1.418691         0.090397
 C        -0.058764        -0.126414        -0.010389
 O         1.119792        -0.038239        -0.328098
 C        -0.837946         1.230450        -0.009558
 C        -1.862734         1.372470        -1.084839
 H        -4.296481         0.567047        -0.806260
 H        -2.262543        -1.260167        -3.322257
 H        -0.834122        -0.629930        -2.515705
 H        -2.865120        -1.895898        -0.507880
 H        -1.119976        -1.530653         1.185816
 H        -0.164735        -2.243198        -0.237655
 H        -1.474776         1.125972         0.964895
 H        -0.197164         2.141797         0.110324
 H        -2.520135         2.125169        -0.819897
 H        -1.417823         1.681285        -2.091343
