19
Iteration:  4558charge 0 multiplicity 1
 O        -4.158424         0.272605        -1.441677
 C        -2.711089         0.028909        -1.377122
 C        -2.055568        -0.725696        -2.510323
 C        -2.016915        -1.345832        -1.158994
 C        -0.846151        -1.328769        -0.106048
 C         0.149319        -0.039488         0.009876
 O         1.227050         0.021977         0.450062
 C        -0.494804         1.171366        -0.815482
 C        -2.051302         1.197724        -0.634764
 H        -4.575987        -0.281212        -0.696174
 H        -2.604258        -1.074063        -3.270086
 H        -1.156781        -0.357298        -2.952505
 H        -2.495149        -2.296109        -0.973356
 H        -1.312670        -1.437223         0.838522
 H        -0.161235        -2.160190        -0.107658
 H        -0.113654         2.136042        -0.288443
 H        -0.074837         1.175832        -1.819217
 H        -2.258066         1.189101         0.402131
 H        -2.591495         2.176265        -0.946138
