19
Iteration:  4358
 O        -4.028302         0.231372        -1.717100
 C        -2.643257         0.062420        -1.432940
 C        -1.795421        -0.865182        -2.264592
 C        -2.019774        -1.428278        -0.844591
 C        -0.832396        -1.238172         0.195695
 C        -0.006782        -0.023520        -0.080526
 O         1.163049        -0.124796        -0.550027
 C        -0.810933         1.233195         0.145135
 C        -1.982452         1.352240        -0.877721
 H        -4.454907         0.563361        -0.924866
 H        -2.269730        -1.285680        -3.127279
 H        -0.667699        -0.574216        -2.444737
 H        -2.815792        -2.142465        -0.781526
 H        -1.438365        -1.100327         1.196327
 H        -0.205170        -2.114102         0.427594
 H        -1.326293         1.048535         1.114633
 H        -0.153922         2.183864         0.218759
 H        -2.714649         1.966646        -0.475928
 H        -1.578497         1.907223        -1.848771
