19
Iteration:  1040
 O        -4.021149         0.400973        -1.247086
 C        -2.554982        -0.023287        -1.398054
 C        -2.447038        -1.045703        -2.492549
 C        -2.126139        -1.291791        -0.905756
 C        -0.612036        -1.267264        -0.500694
 C         0.011246        -0.011419         0.086954
 O         1.111723         0.029549         0.521772
 C        -0.822871         1.289386        -0.117268
 C        -1.528386         1.117865        -1.483355
 H        -4.078947         0.450352        -0.345575
 H        -3.375382        -1.571953        -2.844512
 H        -1.591404        -0.896006        -3.046509
 H        -2.846077        -2.016439        -0.517516
 H        -0.493587        -2.103456         0.208219
 H         0.041528        -1.368300        -1.429789
 H        -1.583280         1.439686         0.711865
 H        -0.187250         2.233314        -0.131354
 H        -2.062404         2.060324        -1.681474
 H        -0.875865         0.954966        -2.367267
