19
Iteration:  3590charge 0 multiplicity 1
 O        -4.015471         0.248545        -1.135998
 C        -2.590757         0.008622        -1.545291
 C        -2.438525        -1.070637        -2.438662
 C        -2.024564        -1.234847        -0.981579
 C        -0.586988        -1.226334        -0.571584
 C        -0.019549         0.012909         0.151112
 O         1.129590         0.016553         0.563670
 C        -0.781242         1.256275        -0.165692
 C        -1.663766         1.205608        -1.461069
 H        -4.050017         0.258344        -0.217393
 H        -3.333897        -1.541739        -2.608624
 H        -1.821534        -0.973832        -3.355735
 H        -2.709288        -1.723335        -0.314333
 H        -0.255083        -2.064272         0.127780
 H         0.084181        -1.445162        -1.403328
 H        -1.566994         1.471742         0.521871
 H        -0.244494         2.168862        -0.319268
 H        -2.342094         2.051115        -1.565198
 H        -0.887094         1.416283        -2.330525
