19
Iteration:  4969
 O        -4.111654         0.133427        -1.172913
 C        -2.695312         0.069857        -1.381676
 C        -2.131022        -0.686732        -2.590886
 C        -2.024273        -1.350116        -1.204853
 C        -0.721251        -1.362940        -0.305594
 C         0.102968        -0.066249        -0.104243
 O         1.100094        -0.067414         0.609041
 C        -0.474655         1.218170        -0.631777
 C        -1.979598         1.329706        -0.787285
 H        -4.631534         0.686558        -1.699571
 H        -2.828224        -1.353858        -3.272056
 H        -1.263259        -0.298105        -3.113705
 H        -2.757700        -2.167407        -0.964984
 H        -1.050415        -1.604574         0.789727
 H         0.060146        -2.158069        -0.534373
 H        -0.263354         1.963967         0.067098
 H        -0.001784         1.509871        -1.671475
 H        -2.536815         1.534443         0.107233
 H        -2.030104         2.280933        -1.383755
