19
Iteration:  3718
 O        -3.871562         0.375004        -0.871228
 C        -2.583175        -0.063947        -1.399796
 C        -2.565921        -1.156476        -2.434569
 C        -1.841677        -1.311932        -1.092036
 C        -0.323434        -1.253731        -0.804309
 C        -0.062307         0.002266         0.012144
 O         0.726173        -0.057371         0.929310
 C        -0.729047         1.361511        -0.450207
 C        -1.721866         1.262220        -1.595253
 H        -3.768657         0.895391         0.028740
 H        -3.504513        -1.758732        -2.450952
 H        -2.070006        -1.056979        -3.405601
 H        -2.401808        -1.928311        -0.375492
 H        -0.013813        -2.140606        -0.311751
 H         0.331339        -1.004835        -1.699885
 H        -1.417776         1.630032         0.389127
 H        -0.083244         2.213233        -0.465813
 H        -2.204004         2.203980        -1.721653
 H        -1.186798         1.061782        -2.506138
