19
Iteration:  3953
 O        -3.926062         0.227782        -0.919550
 C        -2.648361        -0.017881        -1.337769
 C        -2.512633        -1.028820        -2.487701
 C        -1.935164        -1.275067        -0.948358
 C        -0.455837        -1.191844        -0.817403
 C        -0.028691        -0.015842         0.002355
 O         0.772213         0.002284         0.903114
 C        -0.639990         1.307576        -0.450982
 C        -1.652804         1.237188        -1.562322
 H        -3.992216         0.109025         0.027897
 H        -3.387620        -1.631998        -2.996400
 H        -1.764056        -0.877768        -3.302234
 H        -2.551048        -1.859937        -0.249736
 H         0.085159        -1.999896        -0.324232
 H         0.093438        -1.011823        -1.803209
 H        -1.109725         1.693766         0.477417
 H         0.174106         2.034422        -0.677069
 H        -2.090505         2.093312        -1.949302
 H        -1.093757         0.865770        -2.468268
