19
Iteration:  1081charge 0 multiplicity 1
 O        -3.942129         0.405843        -1.171882
 C        -2.599321         0.030999        -1.492763
 C        -2.321972        -1.132321        -2.529385
 C        -2.051953        -1.256272        -0.960281
 C        -0.667366        -1.370621        -0.341285
 C        -0.006114        -0.010835        -0.040268
 O         1.085103         0.040495         0.425928
 C        -0.862655         1.233211        -0.100050
 C        -1.609167         1.267450        -1.463635
 H        -4.057076         0.677042        -0.165333
 H        -3.301244        -1.643725        -2.896177
 H        -1.508735        -1.002791        -3.213991
 H        -2.785072        -1.846298        -0.422618
 H        -0.630732        -1.780380         0.699321
 H        -0.077167        -2.156778        -0.815715
 H        -1.697975         1.240560         0.598734
 H        -0.134875         1.971578         0.236921
 H        -2.321197         2.090684        -1.438623
 H        -0.913473         1.455139        -2.305305
