19
Iteration:   567
 O        -3.859723         0.486991        -1.069043
 C        -2.574532         0.010579        -1.518322
 C        -2.510301        -1.213898        -2.493714
 C        -2.037939        -1.341131        -1.080259
 C        -0.660548        -1.258649        -0.370901
 C        -0.022345         0.066321         0.024791
 O         1.101086         0.019586         0.540198
 C        -0.869645         1.204301        -0.112007
 C        -1.601933         1.271262        -1.577370
 H        -4.011839        -0.119633        -0.184325
 H        -3.428665        -1.722939        -2.980359
 H        -1.785621        -1.136588        -3.297164
 H        -2.808554        -1.850330        -0.552676
 H        -0.672492        -1.973729         0.485628
 H         0.178444        -1.577695        -1.005194
 H        -1.572014         1.161270         0.698038
 H        -0.291302         2.083460         0.115461
 H        -1.905713         2.296608        -1.692406
 H        -0.800513         1.160398        -2.371469
