19
Iteration:  1231charge 0 multiplicity 1
 O        -3.974650         0.339347        -1.585489
 C        -2.617331         0.044761        -1.443736
 C        -1.988678        -0.979340        -2.328211
 C        -2.103058        -1.360909        -0.870491
 C        -0.851829        -1.357055        -0.019923
 C        -0.073649        -0.033838        -0.050608
 O         1.129204        -0.024714        -0.165018
 C        -0.756962         1.290121         0.096362
 C        -1.757121         1.260532        -1.122465
 H        -4.305022         0.453231        -0.639118
 H        -2.542276        -1.414420        -3.189753
 H        -0.955920        -0.662781        -2.486607
 H        -2.892196        -1.968569        -0.427813
 H        -1.252487        -1.345166         1.054779
 H        -0.168756        -2.309320        -0.198032
 H        -1.334732         1.298418         1.105950
 H        -0.166175         2.186706        -0.050463
 H        -2.416145         2.132215        -1.036625
 H        -1.219207         1.502002        -2.072858
