19
Iteration:  1560
 O        -4.053862         0.119806        -1.623333
 C        -2.645196         0.072018        -1.455166
 C        -2.052517        -0.952549        -2.391748
 C        -2.072703        -1.185113        -0.939487
 C        -0.810907        -1.197025        -0.038373
 C         0.012338        -0.009836        -0.041920
 O         1.218095        -0.208370        -0.000099
 C        -0.672349         1.237553        -0.039064
 C        -1.871822         1.356722        -0.984761
 H        -4.442401         0.674112        -0.834932
 H        -2.895384        -1.396655        -2.872769
 H        -1.131937        -0.607315        -2.945501
 H        -2.793103        -1.908556        -0.617844
 H        -1.317533        -1.265398         0.942409
 H        -0.309105        -2.168733        -0.125346
 H        -0.917614         1.550065         1.062218
 H         0.055817         2.001839        -0.262058
 H        -2.562232         2.097787        -0.584218
 H        -1.515749         1.843648        -1.914942
