19
Iteration:  1411
 O        -3.991049         0.212556        -1.678489
 C        -2.597279         0.073957        -1.358795
 C        -1.794619        -0.792738        -2.272026
 C        -2.061366        -1.237778        -0.845162
 C        -0.968561        -1.414869         0.173158
 C        -0.018344        -0.060911        -0.130366
 O         1.190055        -0.232930        -0.259888
 C        -0.781868         1.282663        -0.074244
 C        -1.977925         1.404331        -1.011274
 H        -4.574848         0.372228        -0.926468
 H        -2.252793        -1.337783        -3.049519
 H        -0.718493        -0.482348        -2.484761
 H        -2.874121        -1.903353        -0.693927
 H        -1.323578        -1.455593         1.269441
 H        -0.173348        -2.172213         0.079481
 H        -1.109774         1.588571         0.959888
 H         0.047634         2.034263        -0.280726
 H        -2.737766         2.048207        -0.478008
 H        -1.629732         1.846190        -1.979670
