19
Iteration:  3764charge 0 multiplicity 1
 O        -3.911758         0.195914        -0.869938
 C        -2.554888         0.016957        -1.344875
 C        -2.573791        -1.156243        -2.344169
 C        -1.873632        -1.247306        -1.036808
 C        -0.402269        -1.130801        -0.892789
 C        -0.017859        -0.004192        -0.030411
 O         0.576009        -0.104304         1.007739
 C        -0.561244         1.415463        -0.488266
 C        -1.659240         1.281665        -1.690746
 H        -4.017958         0.286860         0.166979
 H        -3.503397        -1.757409        -2.441421
 H        -2.032262        -1.065204        -3.257480
 H        -2.467142        -1.949121        -0.380058
 H         0.185501        -2.058007        -0.573071
 H        -0.063028        -0.743544        -1.874243
 H        -0.849772         1.835055         0.514090
 H         0.412040         1.876668        -0.693758
 H        -2.191179         2.113995        -1.889163
 H        -0.968982         1.163993        -2.593602
