19
Iteration:   571charge 0 multiplicity 1
 O        -3.850799         0.469559        -1.052986
 C        -2.578097        -0.013767        -1.537166
 C        -2.541220        -1.243502        -2.508936
 C        -2.053235        -1.316095        -1.085368
 C        -0.652562        -1.275817        -0.382827
 C        -0.000307         0.050269         0.031261
 O         1.097608         0.030662         0.565613
 C        -0.868053         1.195472        -0.112980
 C        -1.578244         1.328488        -1.586680
 H        -3.819323         0.084357        -0.254420
 H        -3.374163        -1.760347        -2.839978
 H        -1.862647        -1.178821        -3.367318
 H        -2.812210        -1.789999        -0.427262
 H        -0.729744        -2.060638         0.374188
 H         0.222899        -1.666671        -0.943498
 H        -1.676156         1.115178         0.653685
 H        -0.311864         2.139200         0.119405
 H        -2.095888         2.366350        -1.752735
 H        -0.791477         1.336785        -2.350435
