19
Iteration:  4537
 O        -4.078211         0.147446        -1.534703
 C        -2.720500        -0.010033        -1.318029
 C        -2.003260        -0.568107        -2.463939
 C        -2.045021        -1.265376        -1.005126
 C        -0.826123        -1.277074        -0.066320
 C         0.117398        -0.083505        -0.106146
 O         1.185843        -0.038939         0.348841
 C        -0.548898         1.149258        -0.695638
 C        -2.047350         1.190898        -0.664823
 H        -4.610054         0.164816        -0.705257
 H        -2.534468        -1.064123        -3.161571
 H        -1.134346        -0.193046        -2.948649
 H        -2.555504        -2.233616        -1.022377
 H        -1.239986        -1.350826         0.953845
 H        -0.170101        -2.190637        -0.203417
 H        -0.074252         2.142112        -0.354772
 H        -0.411041         1.145507        -1.747222
 H        -2.385403         1.301727         0.330503
 H        -2.285143         2.183642        -1.121815
