19
Iteration:  1285charge 0 multiplicity 1
 O        -3.984813         0.110389        -1.680255
 C        -2.555695         0.114590        -1.445571
 C        -1.848733        -0.912812        -2.302775
 C        -2.179104        -1.168886        -0.767569
 C        -0.902581        -1.267758         0.123923
 C        -0.033850        -0.074583        -0.092347
 O         1.164154        -0.179295        -0.360784
 C        -0.877160         1.206823         0.153393
 C        -1.792960         1.478881        -1.058508
 H        -4.430783         0.247491        -0.782600
 H        -2.495950        -1.469724        -2.916991
 H        -0.832246        -0.779719        -2.753044
 H        -2.823539        -1.982747        -0.461156
 H        -1.133573        -1.102577         1.174961
 H        -0.501968        -2.224198        -0.259989
 H        -1.270121         0.959702         1.134292
 H        -0.257897         2.067654         0.116721
 H        -2.371233         2.397121        -0.909161
 H        -1.035073         1.746517        -1.837930
