19
Iteration:  3937
 O        -3.910496         0.238804        -0.868678
 C        -2.568004         0.025682        -1.435279
 C        -2.507272        -1.115564        -2.367492
 C        -1.949661        -1.241116        -1.046978
 C        -0.385673        -1.193345        -0.839377
 C         0.010975         0.065416        -0.000993
 O         0.697557        -0.101626         0.937017
 C        -0.680675         1.381345        -0.447340
 C        -1.668040         1.215222        -1.626654
 H        -3.915746        -0.158455        -0.044848
 H        -3.505938        -1.285813        -2.596134
 H        -1.785184        -1.082887        -3.198722
 H        -2.360927        -1.893023        -0.284338
 H        -0.139367        -2.083636        -0.209590
 H         0.079411        -1.254361        -1.809939
 H        -1.138793         1.914178         0.389693
 H         0.144207         2.003034        -0.779440
 H        -2.433217         2.102192        -1.556179
 H        -1.133751         1.170394        -2.591705
