19
Iteration:  4864
 O        -4.000651         0.176436        -1.098279
 C        -2.620968         0.081288        -1.336782
 C        -2.257889        -0.829324        -2.546504
 C        -1.986934        -1.296634        -1.212968
 C        -0.617568        -1.304717        -0.604267
 C         0.039429        -0.052227        -0.057908
 O         0.807409        -0.017555         0.878195
 C        -0.419523         1.186306        -0.810210
 C        -1.915231         1.300177        -0.819407
 H        -4.228920         1.059401        -0.846114
 H        -3.019291        -1.439103        -3.053737
 H        -1.428551        -0.617551        -3.069168
 H        -2.622009        -2.129688        -0.842557
 H        -0.478631        -2.116812         0.083536
 H         0.117082        -1.651830        -1.490459
 H         0.028512         2.274801        -0.612964
 H        -0.019132         0.857918        -1.746618
 H        -2.281476         1.269697         0.226759
 H        -2.208085         2.209128        -1.232867
