19
Iteration:  3600charge 0 multiplicity 1
 O        -3.994900         0.257246        -1.134344
 C        -2.620711         0.081836        -1.506319
 C        -2.432651        -1.071317        -2.464421
 C        -2.039789        -1.243351        -0.955022
 C        -0.586928        -1.346008        -0.576599
 C         0.018568         0.022909         0.092324
 O         1.136789         0.047599         0.624055
 C        -0.821061         1.341912        -0.176857
 C        -1.681361         1.197098        -1.487871
 H        -4.006158         0.003929        -0.209924
 H        -3.286701        -1.586008        -2.745502
 H        -1.640165        -1.126473        -3.272300
 H        -2.722795        -1.678485        -0.248083
 H        -0.291052        -2.333216        -0.217357
 H        -0.137623        -1.226737        -1.555824
 H        -1.379814         1.416691         0.757321
 H        -0.071581         2.094769        -0.093512
 H        -2.225691         2.073557        -1.634416
 H        -1.107934         0.973945        -2.491143
