19
Iteration:  2791
 O        -4.028942         0.228712        -1.459921
 C        -2.602824         0.120447        -1.465627
 C        -2.198103        -1.013691        -2.328436
 C        -2.068738        -1.314028        -0.899530
 C        -0.755770        -1.275671        -0.307348
 C         0.019759         0.013715        -0.023614
 O         1.231684        -0.020756         0.104053
 C        -0.831391         1.194638         0.091519
 C        -1.746961         1.261777        -1.242717
 H        -4.241846         0.882966        -0.677269
 H        -3.006184        -1.521604        -2.865150
 H        -1.264182        -1.176869        -2.824766
 H        -2.943072        -1.704680        -0.406448
 H        -1.000296        -1.545086         0.775571
 H         0.054452        -1.901126        -0.701295
 H        -1.527716         1.249121         0.963930
 H        -0.192468         2.141800         0.160273
 H        -2.400820         2.211346        -1.270734
 H        -1.073858         1.465079        -2.155368
