19
Iteration:  2235
 O        -4.041072         0.375192        -1.485254
 C        -2.622417         0.039139        -1.408018
 C        -2.011299        -0.994271        -2.355994
 C        -2.116693        -1.282683        -0.804651
 C        -0.801377        -1.398629         0.003622
 C         0.012060        -0.080846        -0.064352
 O         1.267164         0.049277        -0.072228
 C        -0.855772         1.175651         0.004618
 C        -1.838719         1.354679        -1.205797
 H        -4.335354         0.218100        -2.335589
 H        -2.684432        -1.556138        -2.959659
 H        -0.938229        -0.913900        -2.640270
 H        -2.805829        -2.048376        -0.392715
 H        -1.122495        -1.470510         1.044637
 H        -0.186995        -2.220046        -0.370451
 H        -1.376929         1.253884         0.888954
 H        -0.108628         1.931420        -0.098026
 H        -2.584316         2.042956        -0.938968
 H        -1.225380         1.501937        -2.112083
