19
Iteration:   949charge 0 multiplicity 1
 O        -3.912499         0.363227        -0.972001
 C        -2.666611         0.055797        -1.483296
 C        -2.559112        -1.087665        -2.390993
 C        -1.957198        -1.270275        -1.055753
 C        -0.465227        -1.209673        -0.772811
 C        -0.040770         0.000193         0.083000
 O         0.888412        -0.028578         0.896399
 C        -0.748320         1.332253        -0.306286
 C        -1.567329         1.058764        -1.647184
 H        -3.987963         0.553952        -0.104573
 H        -3.476901        -1.626269        -2.565146
 H        -1.998584        -1.025831        -3.386132
 H        -2.502234        -1.843320        -0.293425
 H        -0.108310        -2.009279        -0.088285
 H        -0.033796        -1.204962        -1.764963
 H        -1.280594         1.741765         0.576174
 H        -0.106400         2.127671        -0.619224
 H        -1.872471         1.967684        -2.123203
 H        -0.766679         0.692977        -2.301052
