19
Iteration:  3816
 O        -3.790303         0.323504        -0.730520
 C        -2.619307         0.025617        -1.497092
 C        -2.575470        -1.116832        -2.372278
 C        -1.776801        -1.359358        -1.076034
 C        -0.334448        -1.204764        -1.000993
 C        -0.082132         0.003038         0.006638
 O         0.505129        -0.000319         1.084891
 C        -0.665070         1.285084        -0.546602
 C        -1.679040         1.223870        -1.649889
 H        -3.518674         0.642159         0.229525
 H        -3.496681        -1.767152        -2.453075
 H        -2.005299        -1.043509        -3.283331
 H        -2.162556        -2.186085        -0.426801
 H         0.214993        -1.980485        -0.493351
 H         0.015484        -0.978049        -2.030564
 H        -1.186161         1.744403         0.278973
 H         0.268809         1.791510        -0.583656
 H        -2.076954         2.266783        -1.403149
 H        -1.287308         1.337744        -2.621628
