19
Iteration:   446
 O        -4.012753         0.410028        -1.497326
 C        -2.650762         0.086386        -1.382659
 C        -2.167189        -1.005685        -2.334183
 C        -2.121449        -1.305903        -0.811331
 C        -0.736317        -1.406084        -0.182536
 C        -0.003620         0.002129         0.039979
 O         1.215673         0.021393         0.127507
 C        -0.825731         1.236449        -0.087264
 C        -1.746982         1.202073        -1.323351
 H        -4.301540         0.278018        -0.510074
 H        -2.933275        -1.469876        -2.900000
 H        -1.105480        -0.917018        -2.750799
 H        -2.958987        -1.949024        -0.444571
 H        -0.706847        -1.921385         0.799478
 H        -0.221174        -1.914180        -0.979724
 H        -1.234018         1.550524         0.846576
 H        -0.102512         1.993000        -0.258120
 H        -2.317022         2.047890        -1.635502
 H        -0.907389         0.974822        -2.072056
