19
Iteration:  1923charge 0 multiplicity 1
 O        -3.958746         0.265293        -1.375632
 C        -2.572579         0.022989        -1.447980
 C        -2.226048        -1.066165        -2.372464
 C        -2.164225        -1.209420        -0.882275
 C        -0.810924        -1.323493        -0.217321
 C         0.037850         0.071759        -0.057587
 O         1.254333        -0.046680         0.156800
 C        -0.806579         1.246772        -0.034043
 C        -1.731656         1.319402        -1.193661
 H        -4.343914         0.498523        -2.292419
 H        -3.045946        -1.615641        -2.798734
 H        -1.220235        -1.074793        -2.820947
 H        -2.883293        -1.844607        -0.359332
 H        -0.944050        -1.743632         0.768349
 H        -0.171709        -1.987175        -0.800917
 H        -1.539610         0.875872         0.746189
 H        -0.314151         2.215511         0.149959
 H        -2.391039         2.082235        -1.323894
 H        -1.141776         1.635882        -2.092307
