19
Iteration:  1248
 O        -3.940132         0.363468        -1.594124
 C        -2.584948         0.020040        -1.401972
 C        -1.921675        -0.990639        -2.377122
 C        -2.090905        -1.308975        -0.863795
 C        -0.878365        -1.331213         0.106820
 C        -0.063823        -0.052596        -0.019544
 O         1.160103        -0.048639        -0.264398
 C        -0.879965         1.215622         0.057210
 C        -1.798000         1.376326        -1.074962
 H        -4.382968         0.254193        -0.781606
 H        -2.699311        -1.597857        -2.895264
 H        -0.983602        -0.847765        -2.891181
 H        -2.874485        -2.056805        -0.886893
 H        -1.103728        -1.485854         1.143447
 H        -0.303103        -2.222267        -0.019630
 H        -1.257677         1.458957         1.018824
 H         0.008016         1.893478        -0.005124
 H        -2.678747         2.035355        -0.955156
 H        -1.192852         1.671624        -1.927980
