19
Iteration:  1736
 O        -3.973169         0.317607        -1.369347
 C        -2.601544         0.049270        -1.521794
 C        -2.282050        -1.121903        -2.386172
 C        -2.048192        -1.277937        -0.915515
 C        -0.816646        -1.334635        -0.134033
 C        -0.040002        -0.009947        -0.006188
 O         1.191237         0.069576         0.007747
 C        -0.834189         1.214723         0.187365
 C        -1.552471         1.345322        -1.276194
 H        -4.361986         0.048704        -2.314249
 H        -3.151514        -1.679102        -3.030347
 H        -1.423869        -0.978696        -3.135591
 H        -2.897385        -1.693656        -0.337497
 H        -1.052137        -1.591264         0.974555
 H        -0.087755        -2.136408        -0.405231
 H        -1.639640         0.911574         0.957651
 H        -0.234620         2.113718         0.380548
 H        -2.262848         2.147927        -1.339198
 H        -0.833958         1.570481        -2.129231
