19
Iteration:  2127charge 0 multiplicity 1
 O        -4.106032         0.228130        -1.388857
 C        -2.706638         0.031217        -1.350050
 C        -2.024084        -0.940748        -2.388916
 C        -2.114303        -1.290762        -0.865712
 C        -0.776640        -1.285236        -0.164441
 C         0.067339        -0.027634        -0.131910
 O         1.193088        -0.110817         0.248461
 C        -0.678708         1.300293        -0.209602
 C        -1.831027         1.350852        -1.191275
 H        -4.310559         0.335661        -2.266332
 H        -2.756319        -1.546430        -3.069156
 H        -1.080786        -0.686947        -2.861009
 H        -2.904163        -2.021425        -0.624261
 H        -0.905584        -1.463846         0.939859
 H        -0.046469        -2.081444        -0.404717
 H        -1.038821         1.406351         0.919458
 H         0.055144         2.122128        -0.304978
 H        -2.602179         2.101495        -0.934815
 H        -1.599470         1.577341        -2.312321
