19
Iteration:   271charge 0 multiplicity 1
 O        -4.024684         0.243000        -1.636915
 C        -2.600178         0.043539        -1.388493
 C        -1.892556        -0.950706        -2.203305
 C        -2.176622        -1.226834        -0.725402
 C        -0.874648        -1.298777         0.057307
 C        -0.050793        -0.025698        -0.048410
 O         1.140935        -0.179215        -0.246012
 C        -0.728509         1.345143         0.016560
 C        -1.786956         1.340963        -1.217132
 H        -4.389521        -0.197118        -0.951411
 H        -2.367142        -1.573526        -2.974983
 H        -0.930784        -0.708677        -2.535671
 H        -2.981442        -1.921282        -0.389798
 H        -0.946560        -1.457243         1.163356
 H        -0.203308        -2.064751        -0.300229
 H        -1.297971         1.512789         0.952885
 H        -0.050933         2.155904        -0.226445
 H        -2.494265         2.110426        -1.090034
 H        -1.440166         1.667772        -2.229291
