19
Iteration:  2711
 O        -4.000601         0.274911        -1.260530
 C        -2.604146         0.030047        -1.529691
 C        -2.259236        -1.011137        -2.495937
 C        -2.055500        -1.280552        -0.977652
 C        -0.758208        -1.278994        -0.207341
 C         0.028632         0.009651        -0.046603
 O         1.161455        -0.051316         0.304483
 C        -0.738477         1.313256        -0.108437
 C        -1.744331         1.270715        -1.280320
 H        -4.273449        -0.527993        -0.648685
 H        -3.211379        -1.214134        -3.091775
 H        -1.344376        -0.763545        -3.060732
 H        -2.759212        -2.114551        -0.728280
 H        -1.037124        -1.498638         0.861663
 H         0.041485        -1.989504        -0.469126
 H        -1.352075         1.501918         0.858325
 H        -0.024531         2.139146        -0.166779
 H        -2.479836         2.088378        -1.145274
 H        -1.119333         1.447557        -2.153840
