19
Iteration:  4912charge 0 multiplicity 1
 O        -4.089080         0.045441        -1.097333
 C        -2.686115         0.077565        -1.209861
 C        -2.091630        -0.599893        -2.543323
 C        -2.018277        -1.235200        -1.178590
 C        -0.701692        -1.413427        -0.490008
 C         0.038061        -0.082928        -0.107101
 O         0.894883        -0.001095         0.776316
 C        -0.359121         1.138363        -0.884063
 C        -1.923266         1.323077        -0.778984
 H        -4.605604         0.342825        -1.954378
 H        -2.912205        -0.999861        -3.171421
 H        -1.169636        -0.051366        -2.979182
 H        -2.668201        -2.087508        -1.035547
 H        -0.937215        -1.832333         0.541255
 H         0.062152        -2.231780        -0.870358
 H         0.167466         2.035014        -0.504472
 H        -0.098033         1.184205        -2.063022
 H        -2.239302         1.564058         0.197842
 H        -2.161426         2.148806        -1.479678
