19
Iteration:  4638
 O        -4.118428         0.151261        -1.222753
 C        -2.694571         0.096628        -1.281839
 C        -2.160148        -0.682267        -2.529747
 C        -1.997719        -1.245602        -1.085667
 C        -0.614031        -1.368284        -0.404453
 C         0.084295        -0.082665        -0.008569
 O         1.018820        -0.010491         0.723265
 C        -0.516896         1.117096        -0.748514
 C        -1.979701         1.323859        -1.036569
 H        -4.493362        -0.220554        -0.391684
 H        -2.874174        -1.400807        -3.140996
 H        -1.238689        -0.326088        -2.957615
 H        -2.793950        -2.011206        -0.907537
 H        -0.591182        -1.952867         0.526627
 H         0.123009        -1.758376        -1.186963
 H        -0.287198         1.987955        -0.159709
 H         0.120207         1.104674        -1.611925
 H        -2.236553         1.655166        -0.028242
 H        -2.162249         2.044968        -1.778760
