19
Iteration:  1408charge 0 multiplicity 1
 O        -3.998424         0.197694        -1.693420
 C        -2.601601         0.096974        -1.363227
 C        -1.793868        -0.779730        -2.246248
 C        -2.058804        -1.238205        -0.838108
 C        -0.955821        -1.412238         0.178582
 C        -0.044113        -0.048195        -0.121591
 O         1.171008        -0.232781        -0.264081
 C        -0.728831         1.243114        -0.047700
 C        -1.987248         1.423318        -1.029246
 H        -4.586777         0.322534        -0.986386
 H        -2.289433        -1.332249        -3.104862
 H        -0.771149        -0.552608        -2.522220
 H        -2.922562        -1.909768        -0.677290
 H        -1.233380        -1.377069         1.211607
 H        -0.091079        -2.047561         0.031823
 H        -1.059956         1.463597         0.919444
 H        -0.024980         2.035601        -0.317715
 H        -2.677675         1.975378        -0.474649
 H        -1.624037         1.831780        -1.970202
