19
Iteration:  3058
 O        -3.990502         0.039005        -1.590723
 C        -2.643381         0.157533        -1.382636
 C        -1.853351        -0.800664        -2.361272
 C        -2.207780        -1.234070        -0.852951
 C        -0.940406        -1.332578         0.065534
 C         0.030254        -0.056231        -0.137990
 O         1.217975        -0.101217        -0.123945
 C        -0.639707         1.238460        -0.120027
 C        -1.959605         1.387472        -0.975910
 H        -4.298750        -0.222543        -0.638967
 H        -2.537807        -1.169413        -3.209123
 H        -0.903961        -0.596164        -2.639374
 H        -3.074448        -2.011475        -0.870993
 H        -1.331991        -1.182114         1.132041
 H        -0.454913        -2.353763         0.054171
 H        -0.892942         1.408145         1.018086
 H        -0.013660         2.026687        -0.471518
 H        -2.557572         2.194531        -0.610689
 H        -1.565651         1.853982        -1.961093
