19
Iteration:   461charge 0 multiplicity 1
 O        -4.029860         0.287491        -1.457780
 C        -2.629830         0.051366        -1.447046
 C        -2.248075        -1.098650        -2.304512
 C        -2.152147        -1.194572        -0.791840
 C        -0.721544        -1.321953        -0.263663
 C         0.014817        -0.079222         0.004940
 O         1.218791         0.009007         0.202712
 C        -0.789561         1.260076        -0.073449
 C        -1.657311         1.297442        -1.365888
 H        -4.286567         0.830487        -0.785492
 H        -3.009272        -1.762889        -2.811122
 H        -1.382801        -0.898568        -2.872136
 H        -2.905251        -1.836600        -0.396790
 H        -0.817914        -1.974994         0.645878
 H        -0.010937        -1.895599        -0.916228
 H        -1.586110         1.200042         0.752471
 H        -0.084983         2.134838         0.071927
 H        -2.212302         2.296459        -1.193971
 H        -1.085111         1.468614        -2.312878
