19
Iteration:  3414charge 0 multiplicity 1
 O        -3.939970         0.174631        -1.283804
 C        -2.589014         0.073306        -1.417335
 C        -2.296277        -1.057467        -2.481511
 C        -2.093591        -1.317778        -1.072385
 C        -0.762610        -1.272092        -0.259506
 C         0.043297         0.030024        -0.087677
 O         1.212434         0.008991         0.264425
 C        -0.862737         1.295664        -0.020766
 C        -1.672384         1.307635        -1.264247
 H        -4.180649         0.142196        -0.318767
 H        -3.286332        -1.118384        -3.059553
 H        -1.386138        -0.750871        -3.017226
 H        -2.894159        -1.794606        -0.474901
 H        -1.119254        -1.485902         0.829458
 H        -0.061503        -2.087788        -0.534082
 H        -1.511519         1.358271         0.902158
 H        -0.136403         2.062000         0.083960
 H        -2.285450         2.122990        -1.373315
 H        -1.253993         1.180104        -2.284013
