19
Iteration:   622
 O        -4.009588         0.409182        -1.121796
 C        -2.630285         0.017992        -1.402540
 C        -2.449904        -1.124545        -2.338643
 C        -2.047571        -1.306901        -0.922352
 C        -0.526155        -1.300683        -0.682889
 C        -0.056426         0.037307         0.028236
 O         0.973216        -0.018876         0.712214
 C        -0.746850         1.311308        -0.231034
 C        -1.524787         1.150708        -1.576839
 H        -3.860137         1.223133        -0.513162
 H        -3.333889        -1.702952        -2.707683
 H        -1.627201        -1.054891        -3.084606
 H        -2.674662        -2.040117        -0.498587
 H         0.018454        -2.172323        -0.245423
 H        -0.070236        -1.281476        -1.689645
 H        -1.618688         1.429280         0.439672
 H        -0.102101         2.211138        -0.193929
 H        -1.993212         2.138898        -1.699450
 H        -0.946421         0.862828        -2.505236
