19
Iteration:  2585
 O        -3.957118         0.418800        -1.229815
 C        -2.610659         0.061507        -1.446845
 C        -2.183077        -1.106584        -2.373704
 C        -2.099761        -1.288046        -0.891907
 C        -0.695832        -1.350763        -0.288694
 C        -0.040002         0.017885        -0.071748
 O         1.184770         0.038594         0.119871
 C        -1.027072         1.233972         0.082604
 C        -1.616074         1.208608        -1.381256
 H        -4.346802         0.610059        -2.137379
 H        -2.786862        -1.653002        -3.072651
 H        -1.018288        -0.991482        -2.599164
 H        -2.724676        -2.004982        -0.358509
 H        -0.696600        -1.744240         0.742212
 H        -0.059326        -2.140439        -0.757979
 H        -1.878429         0.895354         0.666403
 H        -0.463346         2.168558         0.445862
 H        -2.132859         2.182830        -1.415968
 H        -0.830224         1.328507        -2.084565
