19
Iteration:  1710charge 0 multiplicity 1
 O        -3.861571         0.455711        -1.348452
 C        -2.570551         0.045684        -1.461145
 C        -2.064757        -1.034054        -2.364960
 C        -2.136886        -1.263663        -0.804884
 C        -0.819420        -1.392567        -0.141799
 C        -0.069885        -0.013729        -0.015493
 O         1.179209         0.056324        -0.075561
 C        -0.970609         1.197524         0.131782
 C        -1.692719         1.220375        -1.286281
 H        -4.396151        -0.074016        -2.118888
 H        -2.866195        -1.664898        -2.922815
 H        -1.040908        -1.048380        -2.807034
 H        -2.986632        -1.887262        -0.577082
 H        -0.824888        -1.843934         0.871552
 H        -0.115097        -2.036913        -0.703967
 H        -1.707379         0.941612         1.039285
 H        -0.463883         2.203287         0.109856
 H        -2.433750         2.090242        -1.515960
 H        -0.907136         1.306767        -2.070632
