19
Iteration:   938
 O        -3.986387         0.356577        -0.906368
 C        -2.604256         0.020709        -1.488165
 C        -2.642173        -1.113086        -2.494957
 C        -1.924823        -1.254268        -1.045219
 C        -0.431589        -1.173964        -0.651178
 C        -0.014461         0.058108         0.055957
 O         0.846238        -0.084325         0.938494
 C        -0.727353         1.307005        -0.402379
 C        -1.531565         1.158753        -1.708651
 H        -3.771496         0.301315         0.045985
 H        -3.604655        -1.599356        -2.463345
 H        -1.991346        -0.990530        -3.410047
 H        -2.570825        -1.865463        -0.383578
 H        -0.019237        -2.125250        -0.232221
 H         0.269691        -1.081091        -1.495578
 H        -1.370558         1.535607         0.471302
 H         0.122442         1.960429        -0.360127
 H        -2.031498         1.982956        -2.152003
 H        -0.853532         0.770261        -2.478520
