19
Iteration:  4101charge 0 multiplicity 1
 O        -3.949365         0.292001        -1.153897
 C        -2.651030         0.060082        -1.418652
 C        -2.363717        -1.061423        -2.417592
 C        -2.021245        -1.272335        -0.985554
 C        -0.566084        -1.317009        -0.506664
 C        -0.024382        -0.016281        -0.020581
 O         1.152444         0.100740         0.492626
 C        -0.875990         1.168206        -0.140739
 C        -1.707255         1.281209        -1.482229
 H        -3.988325         0.253677        -0.110788
 H        -3.159438        -1.450068        -3.114576
 H        -1.519866        -0.948807        -3.045316
 H        -2.744390        -1.858045        -0.400033
 H        -0.818513        -2.043944         0.305757
 H         0.025825        -1.817412        -1.258670
 H        -1.566616         1.160065         0.769454
 H        -0.193867         2.033332        -0.016626
 H        -2.247763         2.293767        -1.312215
 H        -1.082429         1.269936        -2.355567
