19
Iteration:  2717charge 0 multiplicity 1
 O        -3.989642         0.303807        -1.246128
 C        -2.651933         0.017475        -1.534317
 C        -2.262325        -1.004366        -2.519456
 C        -2.061661        -1.346752        -1.021118
 C        -0.734938        -1.241382        -0.158327
 C         0.011418         0.050055        -0.102564
 O         1.178163        -0.076547         0.326122
 C        -0.731693         1.315833        -0.110127
 C        -1.765152         1.282731        -1.248046
 H        -4.161613        -0.355035        -0.574829
 H        -2.974915        -1.466482        -3.238076
 H        -1.245135        -0.984186        -2.916566
 H        -2.847125        -2.007204        -0.697928
 H        -1.114544        -1.473308         0.829221
 H         0.016990        -1.950705        -0.543002
 H        -1.054852         1.269133         0.920271
 H        -0.134966         2.249202        -0.081359
 H        -2.640405         1.983093        -1.287954
 H        -1.067666         1.500405        -2.154689
