19
Iteration:  1538
 O        -4.015329         0.197069        -1.640864
 C        -2.604102         0.051086        -1.396427
 C        -2.040970        -0.905687        -2.416945
 C        -2.178250        -1.301221        -0.923843
 C        -0.847220        -1.364651         0.025656
 C         0.051710        -0.091958        -0.005704
 O         1.298515        -0.143120        -0.012620
 C        -0.659320         1.372271        -0.093755
 C        -1.975809         1.411988        -1.041946
 H        -4.290314         0.687080        -0.803282
 H        -2.774318        -1.412053        -2.974467
 H        -0.959619        -0.704335        -2.759933
 H        -2.992773        -1.941077        -0.634056
 H        -1.162308        -1.576357         1.078505
 H        -0.282930        -2.301415        -0.228202
 H        -0.893426         1.437979         1.068412
 H         0.017019         2.210734        -0.271299
 H        -2.816979         1.959492        -0.614439
 H        -1.883936         1.985313        -1.984696
