19
Iteration:   397charge 0 multiplicity 1
 O        -3.888699         0.290427        -1.221505
 C        -2.526081         0.115465        -1.613098
 C        -2.152383        -1.121520        -2.488223
 C        -2.061304        -1.166727        -0.852143
 C        -0.862242        -1.301729         0.085228
 C         0.002065        -0.013925        -0.021861
 O         1.217452        -0.075164        -0.032028
 C        -0.951004         1.189501        -0.043221
 C        -1.687731         1.317154        -1.324504
 H        -4.492019         0.139224        -1.904209
 H        -3.106418        -1.523914        -2.919981
 H        -1.276992        -1.129970        -3.079467
 H        -2.926101        -1.592272        -0.399141
 H        -1.210741        -1.004374         1.054329
 H        -0.270251        -2.240929         0.035697
 H        -1.682505         1.185112         0.812625
 H        -0.382912         2.163253         0.115659
 H        -2.534126         2.060803        -1.245181
 H        -1.062892         1.558276        -2.118050
