19
Iteration:  1409charge 0 multiplicity 1
 O        -3.998180         0.203493        -1.685566
 C        -2.599615         0.088690        -1.361833
 C        -1.794379        -0.783283        -2.254209
 C        -2.059136        -1.237265        -0.841000
 C        -0.961367        -1.416006         0.177096
 C        -0.035638        -0.050638        -0.126159
 O         1.178153        -0.233348        -0.262521
 C        -0.747564         1.255474        -0.055216
 C        -1.985302         1.417577        -1.023380
 H        -4.557445         0.332356        -1.007938
 H        -2.276397        -1.336070        -3.088929
 H        -0.746784        -0.530180        -2.511920
 H        -2.903175        -1.901814        -0.679160
 H        -1.262409        -1.404953         1.234571
 H        -0.114642        -2.078973         0.052581
 H        -1.074762         1.509808         0.922530
 H         0.003022         2.037611        -0.305635
 H        -2.692510         1.992275        -0.474606
 H        -1.621706         1.831532        -1.976868
