19
Iteration:  2033charge 0 multiplicity 1
 O        -3.987176         0.268017        -1.264856
 C        -2.578927         0.099276        -1.476595
 C        -2.170045        -0.991918        -2.466975
 C        -2.078068        -1.304484        -0.952912
 C        -0.818869        -1.377817        -0.011999
 C        -0.011173         0.000576         0.094809
 O         1.209856         0.082075        -0.035224
 C        -0.892421         1.173582         0.050351
 C        -1.643378         1.222892        -1.358563
 H        -4.421638         0.877834        -2.031656
 H        -2.909467        -1.619740        -3.031608
 H        -1.209053        -0.890062        -2.954632
 H        -3.041168        -1.687179        -0.610965
 H        -1.248105        -1.664412         0.944950
 H        -0.144584        -2.186041        -0.341930
 H        -1.740811         1.347938         0.682623
 H        -0.227151         2.062323         0.148691
 H        -2.174303         2.303769        -1.270099
 H        -0.690715         1.267449        -2.064078
