19
Iteration:    60
 O        -4.099389         0.298680        -1.394146
 C        -2.615763         0.020632        -1.503991
 C        -1.878005        -0.904071        -2.381763
 C        -2.009653        -1.218890        -0.856024
 C        -0.862574        -1.223198         0.177127
 C         0.024570        -0.103330        -0.129666
 O         1.222047        -0.197587        -0.002802
 C        -0.869345         1.251249        -0.222071
 C        -1.918812         1.324267        -1.255590
 H        -4.272843        -0.209612        -0.489630
 H        -2.426624        -1.411303        -3.295084
 H        -0.785693        -0.556383        -2.484869
 H        -2.804230        -1.936035        -0.503623
 H        -1.225290        -1.088685         1.198735
 H        -0.351953        -2.224985         0.094103
 H        -1.196404         1.408404         0.827831
 H        -0.077639         2.011920        -0.372686
 H        -2.582687         2.245900        -1.202593
 H        -1.250207         1.657704        -2.166350
