19
Iteration:   769
 O        -3.808864         0.368208        -0.741879
 C        -2.555194         0.050368        -1.482132
 C        -2.669337        -1.138367        -2.353311
 C        -1.878436        -1.282002        -1.077675
 C        -0.333758        -1.292252        -0.895038
 C        -0.064190         0.013168         0.036937
 O         0.525873        -0.025371         1.068689
 C        -0.660490         1.339650        -0.493980
 C        -1.550526         1.197102        -1.798631
 H        -3.570869         0.289942         0.117104
 H        -3.606708        -1.649459        -2.462286
 H        -2.052719        -0.985609        -3.230490
 H        -2.456273        -1.755340        -0.295564
 H        -0.053480        -2.294850        -0.654057
 H         0.326743        -1.108966        -1.774771
 H        -1.301736         1.628620         0.318793
 H         0.210722         1.998026        -0.526091
 H        -2.158243         2.127043        -2.090971
 H        -0.848754         0.896422        -2.614192
