19
Iteration:   724charge 0 multiplicity 1
 O        -3.813613         0.405984        -0.765652
 C        -2.637299         0.011489        -1.353625
 C        -2.578546        -1.175010        -2.526199
 C        -1.934867        -1.371421        -1.168580
 C        -0.452854        -1.227127        -0.808886
 C        -0.080478        -0.022573         0.069646
 O         0.694080        -0.039406         1.046636
 C        -0.664375         1.439427        -0.496385
 C        -1.596334         1.176374        -1.709561
 H        -3.739856         0.720905         0.054020
 H        -3.559499        -1.698068        -2.649575
 H        -1.882292        -1.025737        -3.272322
 H        -2.422993        -2.120976        -0.467814
 H        -0.003242        -2.021120        -0.184018
 H         0.242632        -1.314145        -1.680817
 H        -1.124574         1.921693         0.339853
 H         0.259564         1.935792        -0.854607
 H        -2.163704         2.168587        -2.021423
 H        -0.937648         0.875408        -2.585402
