19
Iteration:  1701charge 0 multiplicity 1
 O        -3.885984         0.499950        -1.373321
 C        -2.569358         0.020248        -1.467567
 C        -2.038640        -1.032342        -2.358691
 C        -2.094715        -1.274755        -0.799683
 C        -0.788288        -1.413604        -0.086603
 C        -0.047979        -0.026943         0.002615
 O         1.138118         0.045090        -0.099669
 C        -0.995274         1.225804         0.070570
 C        -1.704462         1.207400        -1.299100
 H        -4.591067         0.018612        -2.000759
 H        -2.771052        -1.784009        -2.962651
 H        -1.072574        -0.659640        -2.725930
 H        -2.901161        -1.887367        -0.399519
 H        -0.792995        -2.028324         0.880453
 H        -0.217875        -2.013155        -0.821275
 H        -1.688171         0.978685         1.002426
 H        -0.360512         2.015291         0.449136
 H        -2.404566         2.088475        -1.287500
 H        -0.928374         1.374666        -2.104141
