19
Iteration:  1087charge 0 multiplicity 1
 O        -3.898817         0.343685        -1.181400
 C        -2.597354         0.085667        -1.508320
 C        -2.329597        -1.111995        -2.488551
 C        -2.085617        -1.258774        -0.990741
 C        -0.699809        -1.339209        -0.323233
 C        -0.013547        -0.060745        -0.033215
 O         1.132177         0.052052         0.426973
 C        -0.853433         1.221677        -0.115471
 C        -1.645482         1.250454        -1.484177
 H        -3.972464         0.656356        -0.206409
 H        -3.231822        -1.547913        -2.719085
 H        -1.418451        -0.920871        -3.125076
 H        -2.925220        -1.708681        -0.432706
 H        -0.752887        -1.648348         0.731832
 H        -0.197996        -2.149151        -0.894361
 H        -1.583703         0.893212         0.725491
 H        -0.393728         2.207625         0.206913
 H        -2.194193         2.222368        -1.405615
 H        -0.925229         1.500185        -2.278114
