19
Iteration:  3115charge 0 multiplicity 1
 O        -3.990497         0.212036        -1.720713
 C        -2.628973         0.047663        -1.349442
 C        -1.888356        -0.890013        -2.324765
 C        -2.083191        -1.263089        -0.877035
 C        -0.942347        -1.256262         0.140722
 C         0.053784        -0.043074        -0.082509
 O         1.250719        -0.140612        -0.286682
 C        -0.686248         1.238244         0.004242
 C        -2.044548         1.328623        -0.960166
 H        -4.585947         0.247574        -0.957354
 H        -2.388370        -1.521858        -2.953619
 H        -0.907172        -0.512214        -2.793767
 H        -2.850740        -2.009896        -0.672460
 H        -1.357164        -1.199414         1.215778
 H        -0.352253        -2.220079         0.065744
 H        -1.037013         1.443931         1.084985
 H        -0.010198         2.111623        -0.263926
 H        -2.673668         1.727576        -0.205105
 H        -1.918654         2.116786        -1.840221
