19
Iteration:  1188
 O        -4.065940         0.222323        -1.546784
 C        -2.539250         0.117705        -1.517047
 C        -2.151939        -1.050027        -2.365498
 C        -2.101092        -1.115207        -0.805438
 C        -0.696900        -1.377494        -0.120462
 C        -0.013419        -0.073372        -0.013338
 O         1.258994        -0.053243         0.038835
 C        -0.875488         1.155725         0.003190
 C        -1.777156         1.404932        -1.222684
 H        -4.392119         0.730772        -0.621090
 H        -3.010251        -1.596468        -2.919636
 H        -1.238166        -0.912145        -2.902949
 H        -2.962118        -1.587536        -0.347078
 H        -1.111761        -1.366730         0.911895
 H         0.033768        -2.120317        -0.467629
 H        -1.616529         0.970845         0.897087
 H        -0.048450         1.728965         0.375468
 H        -2.448097         2.247605        -1.161082
 H        -0.991474         1.728473        -1.954631
