19
Iteration:  2971
 O        -3.990845         0.176913        -1.644581
 C        -2.604276         0.068573        -1.458598
 C        -2.069415        -0.957702        -2.319525
 C        -2.126961        -1.266132        -0.798239
 C        -0.823540        -1.410408        -0.057316
 C         0.036611        -0.027497        -0.110438
 O         1.300418        -0.090350        -0.049111
 C        -0.782458         1.304731        -0.062132
 C        -1.922213         1.468114        -1.012300
 H        -4.385700         0.288120        -0.714591
 H        -2.809109        -1.268424        -3.095996
 H        -1.095019        -0.791406        -2.664369
 H        -2.873847        -2.062114        -0.556908
 H        -0.961485        -1.599138         1.030503
 H        -0.226672        -2.285695        -0.422882
 H        -1.253090         1.224617         0.974456
 H        -0.157979         2.172179        -0.051038
 H        -2.676968         1.968981        -0.436180
 H        -1.562283         2.087008        -1.958313
