19
Iteration:  1462
 O        -3.991923         0.098645        -1.661485
 C        -2.609646         0.086488        -1.430970
 C        -1.986887        -0.876751        -2.422346
 C        -2.069106        -1.185545        -0.882963
 C        -0.965096        -1.279749         0.090864
 C        -0.008026        -0.092442        -0.065561
 O         1.222745        -0.218161        -0.116837
 C        -0.605827         1.311831        -0.032966
 C        -1.951854         1.408542        -0.970770
 H        -4.521229         0.351876        -0.930114
 H        -2.782548        -1.427041        -2.926920
 H        -1.062568        -0.502067        -2.915108
 H        -2.737674        -2.040140        -0.732756
 H        -1.177484        -1.159252         1.126722
 H        -0.304420        -2.150775         0.144023
 H        -0.884047         1.460318         1.009092
 H        -0.018325         2.209217        -0.136044
 H        -2.706178         2.022809        -0.529108
 H        -1.699323         1.944173        -1.899067
