19
Iteration:  2299
 O        -3.923287         0.408398        -1.586263
 C        -2.559318         0.010668        -1.463659
 C        -2.045941        -1.063337        -2.315062
 C        -2.144654        -1.297844        -0.764254
 C        -0.838952        -1.319928         0.024270
 C        -0.008187        -0.003027        -0.013467
 O         1.139674         0.047058        -0.293721
 C        -0.894637         1.193664         0.204114
 C        -1.694973         1.319444        -1.167450
 H        -4.374832        -0.430186        -1.568325
 H        -2.664070        -1.691576        -2.912907
 H        -0.969172        -1.112887        -2.682748
 H        -3.012009        -1.962539        -0.509373
 H        -1.027911        -1.869688         0.957639
 H        -0.178438        -2.008565        -0.532163
 H        -1.638681         1.053056         1.079450
 H        -0.280024         2.079922         0.372020
 H        -2.518453         2.112106        -0.957860
 H        -1.117591         1.760856        -2.033379
