19
Iteration:  2934charge 0 multiplicity 1
 O        -4.089282         0.161986        -1.566945
 C        -2.668414         0.104826        -1.448300
 C        -1.981848        -0.891351        -2.359372
 C        -2.188762        -1.234167        -0.849384
 C        -0.787686        -1.316597        -0.014266
 C         0.024708        -0.025866        -0.073148
 O         1.282080        -0.100921        -0.094414
 C        -0.798468         1.274199         0.020572
 C        -1.788432         1.305754        -1.098304
 H        -4.368351         0.134658        -0.559130
 H        -2.584243        -1.475838        -3.054056
 H        -1.082040        -0.435574        -2.860097
 H        -2.841252        -2.082423        -0.748295
 H        -1.089316        -1.524848         1.062541
 H        -0.188808        -2.153959        -0.393535
 H        -1.353277         1.149023         1.026233
 H        -0.194854         2.235918         0.127103
 H        -2.422858         2.216744        -0.986446
 H        -1.255076         1.632850        -1.979345
