19
Iteration:  4487charge 0 multiplicity 1
 O        -4.018257         0.070820        -1.549900
 C        -2.646603         0.018172        -1.377684
 C        -1.952606        -0.756512        -2.386913
 C        -2.082219        -1.277229        -0.945247
 C        -0.816277        -1.244601        -0.061288
 C        -0.028707        -0.022764        -0.076054
 O         1.232131        -0.188390         0.084530
 C        -0.574583         1.278042        -0.417088
 C        -2.139801         1.350249        -0.771819
 H        -4.470657         0.417207        -0.705036
 H        -2.355372        -1.148658        -3.365014
 H        -0.901714        -0.349723        -2.677631
 H        -2.961451        -1.900442        -0.783148
 H        -1.084601        -1.436820         0.970109
 H        -0.148775        -2.063109        -0.290396
 H        -0.320475         1.831525         0.442535
 H         0.097207         1.722015        -1.228214
 H        -2.677345         1.755741         0.162483
 H        -2.273049         2.172416        -1.452992
