19
Iteration:  1669
 O        -3.962014         0.424450        -1.467831
 C        -2.549496         0.049254        -1.518750
 C        -2.096173        -1.011255        -2.328209
 C        -2.073046        -1.283018        -0.897463
 C        -0.838624        -1.393447        -0.016310
 C        -0.011117        -0.046022        -0.068022
 O         1.212903         0.061892        -0.101751
 C        -0.915293         1.185111         0.141926
 C        -1.723036         1.307286        -1.194756
 H        -4.473099        -0.375978        -1.501060
 H        -2.868409        -1.629303        -2.915503
 H        -1.353735        -1.023460        -3.071693
 H        -2.826117        -1.946224        -0.488667
 H        -1.220882        -1.566485         1.047604
 H        -0.274629        -2.285788        -0.338026
 H        -1.564279         1.050789         1.034436
 H        -0.237506         1.973013         0.358941
 H        -2.323830         2.224572        -1.245763
 H        -0.946591         1.397183        -1.994485
