19
Iteration:  2701charge 0 multiplicity 1
 O        -4.000312         0.246144        -1.280861
 C        -2.590730         0.053806        -1.405778
 C        -2.220039        -0.966419        -2.498435
 C        -2.063668        -1.248149        -0.988691
 C        -0.760344        -1.326140        -0.247495
 C        -0.027739        -0.018018         0.035779
 O         1.212597        -0.022463         0.289022
 C        -0.778558         1.284657        -0.117687
 C        -1.720249         1.298855        -1.336651
 H        -4.435994        -0.539776        -0.787999
 H        -3.136799        -1.542793        -2.830954
 H        -1.507614        -0.732626        -3.309553
 H        -2.812014        -1.955804        -0.525526
 H        -0.998464        -1.605178         0.842297
 H        -0.143058        -2.177540        -0.588443
 H        -1.411916         1.533933         0.812058
 H        -0.010624         2.048728        -0.278028
 H        -2.334187         2.245001        -1.198746
 H        -1.227304         1.488212        -2.348419
