19
Iteration:  3733charge 0 multiplicity 1
 O        -3.830557         0.339841        -0.874551
 C        -2.616459         0.026901        -1.473464
 C        -2.589407        -1.161999        -2.385586
 C        -1.863416        -1.288763        -1.041712
 C        -0.369444        -1.172222        -0.882363
 C         0.025203         0.008747        -0.054383
 O         0.680397        -0.011987         1.032129
 C        -0.716487         1.269057        -0.380943
 C        -1.749692         1.196185        -1.641759
 H        -3.559948         0.782441        -0.095046
 H        -3.433612        -1.839119        -2.583756
 H        -2.045201        -1.025137        -3.312183
 H        -2.388256        -2.025274        -0.409764
 H         0.187145        -2.059169        -0.401234
 H         0.031172        -1.197510        -1.877072
 H        -0.968271         1.659970         0.642320
 H         0.247223         1.754268        -0.754734
 H        -2.512891         1.974722        -1.541097
 H        -1.177997         1.474774        -2.620035
