19
Iteration:  1491
 O        -4.064219         0.190010        -1.679691
 C        -2.670819         0.127077        -1.382917
 C        -1.879833        -0.879360        -2.317533
 C        -2.139226        -1.212642        -0.798316
 C        -0.896305        -1.359152        -0.013226
 C         0.064187        -0.094341        -0.085259
 O         1.257487        -0.191510        -0.044620
 C        -0.687524         1.279251        -0.161616
 C        -1.959448         1.382518        -0.997696
 H        -4.569057         0.123694        -0.941931
 H        -2.467224        -1.267005        -3.204569
 H        -0.897539        -0.512894        -2.444646
 H        -2.940443        -1.993196        -0.605062
 H        -1.011205        -1.478816         1.135509
 H        -0.173459        -2.180021        -0.193400
 H        -1.114093         1.400686         0.957850
 H        -0.006255         2.167764        -0.324241
 H        -2.703511         2.170160        -0.600895
 H        -1.742268         1.942902        -1.926556
