19
Iteration:  2732
 O        -4.004175         0.330842        -1.232263
 C        -2.606362        -0.006373        -1.427215
 C        -2.119592        -1.067782        -2.551264
 C        -2.093261        -1.316625        -1.037368
 C        -0.828319        -1.281242        -0.254872
 C         0.082387         0.034871        -0.074874
 O         1.222911        -0.073034         0.321304
 C        -0.791891         1.313949        -0.113183
 C        -1.828615         1.316192        -1.289843
 H        -4.346629         0.095087        -0.397676
 H        -2.877634        -1.793420        -3.005426
 H        -1.274390        -0.702195        -3.115999
 H        -2.850215        -2.017595        -0.603478
 H        -0.991310        -1.396999         0.817699
 H        -0.122993        -2.099869        -0.407992
 H        -1.458811         1.333084         0.807782
 H        -0.171595         2.192697        -0.131006
 H        -2.383005         2.152121        -1.035397
 H        -1.353917         1.477576        -2.165639
