19
Iteration:  4906charge 0 multiplicity 1
 O        -4.049135         0.077794        -1.095950
 C        -2.684663         0.064142        -1.289952
 C        -2.141040        -0.605977        -2.492137
 C        -1.997211        -1.264154        -1.170207
 C        -0.694668        -1.451818        -0.525269
 C         0.094183        -0.039288        -0.107278
 O         0.858585         0.011538         0.792080
 C        -0.406521         1.145963        -0.905088
 C        -1.905432         1.275195        -0.761552
 H        -4.438472         0.557856        -1.809340
 H        -2.790414        -1.159791        -3.221295
 H        -1.375267        -0.106808        -2.987600
 H        -2.754995        -2.072783        -1.017111
 H        -0.940329        -1.760493         0.494525
 H        -0.083706        -2.195528        -0.931765
 H         0.073155         1.990596        -0.369435
 H        -0.073881         1.296707        -1.868333
 H        -2.134785         1.693701         0.284486
 H        -2.180906         2.109427        -1.455666
