19
Iteration:  3012charge 0 multiplicity 1
 O        -4.069329         0.250665        -1.612077
 C        -2.641645         0.052148        -1.418948
 C        -1.991412        -0.875596        -2.332290
 C        -2.069356        -1.389902        -0.882782
 C        -0.822734        -1.274777         0.006072
 C         0.035241        -0.035437        -0.090116
 O         1.296456        -0.148393        -0.053974
 C        -0.726154         1.317363        -0.066696
 C        -2.004523         1.308596        -1.041709
 H        -4.326280         0.856658        -0.894074
 H        -2.490535        -1.470720        -3.046618
 H        -0.994395        -0.579950        -2.684156
 H        -2.803118        -2.145108        -0.576397
 H        -1.073532        -1.513871         1.066590
 H        -0.097891        -2.072982        -0.277318
 H        -1.059131         1.513518         1.000200
 H        -0.081986         2.086311        -0.444786
 H        -2.833996         1.800435        -0.503801
 H        -1.786618         1.931406        -1.879353
