19
Iteration:  1280
 O        -3.975710         0.125607        -1.667573
 C        -2.573220         0.119856        -1.457199
 C        -1.888687        -0.905416        -2.300429
 C        -2.166441        -1.189991        -0.803295
 C        -0.880819        -1.262413         0.136014
 C         0.003398        -0.044263        -0.064242
 O         1.169337        -0.188269        -0.358516
 C        -0.912052         1.196996         0.145763
 C        -1.748575         1.457638        -1.072007
 H        -4.413922         0.147500        -0.749944
 H        -2.559008        -1.526280        -2.968790
 H        -0.871154        -0.792049        -2.620432
 H        -3.041811        -1.857084        -0.590998
 H        -1.132136        -1.137557         1.215086
 H        -0.406108        -2.192397        -0.161074
 H        -1.402607         0.985677         1.124558
 H        -0.116397         2.008019         0.170160
 H        -2.551869         2.249196        -0.958767
 H        -1.166418         1.921231        -1.882901
