19
Iteration:  2284charge 0 multiplicity 1
 O        -3.951388         0.397136        -1.610610
 C        -2.568515         0.084389        -1.522005
 C        -2.020491        -1.210930        -2.266822
 C        -2.138486        -1.186914        -0.780725
 C        -0.738862        -1.338898        -0.102847
 C        -0.005644        -0.010413         0.034092
 O         1.170201        -0.051691        -0.280882
 C        -0.921114         1.267181         0.224964
 C        -1.793046         1.335945        -1.086179
 H        -4.476553        -0.501764        -1.819840
 H        -2.801038        -1.661053        -2.962344
 H        -1.057168        -1.023082        -2.587193
 H        -2.980124        -1.660280        -0.266487
 H        -0.869599        -1.467855         0.992200
 H        -0.075186        -2.011065        -0.653809
 H        -1.622591         1.068357         1.141678
 H        -0.348390         2.212350         0.334300
 H        -2.553976         2.107552        -0.922803
 H        -1.041089         1.413387        -1.812839
