19
Iteration:  1573
 O        -4.069804         0.162195        -1.574265
 C        -2.617449         0.081384        -1.387724
 C        -2.013681        -0.891087        -2.417763
 C        -2.072554        -1.220679        -0.905390
 C        -0.921383        -1.286649        -0.021566
 C         0.022128        -0.102134        -0.090064
 O         1.279933        -0.162437         0.014686
 C        -0.674179         1.295442        -0.033941
 C        -1.929457         1.390631        -1.093420
 H        -4.551054         0.413772        -0.827164
 H        -2.568917        -1.556409        -3.184428
 H        -1.013467        -0.793476        -2.840385
 H        -2.865569        -1.910377        -0.605327
 H        -1.156538        -1.192783         1.021941
 H        -0.202268        -2.102412        -0.129016
 H        -1.062790         1.221798         1.067727
 H         0.076684         2.117198        -0.142067
 H        -2.651873         2.094752        -0.806203
 H        -1.448792         1.780509        -2.014416
