19
Iteration:  1770
 O        -4.011175         0.311396        -1.325384
 C        -2.597123         0.021458        -1.465715
 C        -2.155739        -1.032230        -2.372264
 C        -2.102113        -1.254392        -0.888936
 C        -0.765480        -1.311290        -0.175805
 C        -0.008506        -0.017916        -0.011901
 O         1.253272        -0.020316         0.126982
 C        -0.860005         1.203255        -0.011619
 C        -1.760375         1.251821        -1.343292
 H        -4.115422         1.095858        -1.843672
 H        -2.848508        -1.518467        -3.123266
 H        -1.090550        -0.758646        -2.753922
 H        -2.931926        -1.770502        -0.389396
 H        -1.040178        -1.634368         0.884400
 H        -0.047496        -2.035350        -0.617836
 H        -1.540582         1.229060         0.867799
 H        -0.386673         2.201069         0.036143
 H        -2.403691         2.106834        -1.248099
 H        -1.037397         1.373189        -2.195454
