19
Iteration:  4061
 O        -3.918251         0.401165        -1.108069
 C        -2.607028        -0.003675        -1.443546
 C        -2.529106        -1.143224        -2.468319
 C        -2.012217        -1.328589        -1.083862
 C        -0.549133        -1.218703        -0.636746
 C        -0.032536         0.060607         0.100829
 O         1.161200         0.053103         0.567652
 C        -0.917569         1.254170        -0.076315
 C        -1.647780         1.177089        -1.480298
 H        -4.206259         0.261362        -0.247263
 H        -3.480508        -1.602564        -2.661222
 H        -1.579945        -1.283205        -3.109278
 H        -2.503134        -2.100215        -0.470499
 H        -0.279211        -1.936639         0.174557
 H         0.250607        -1.329466        -1.393049
 H        -1.655025         1.317474         0.718329
 H        -0.367335         2.147666        -0.033281
 H        -2.230530         2.024942        -1.697440
 H        -0.856123         0.950041        -2.352592
