19
Iteration:  4056charge 0 multiplicity 1
 O        -3.930005         0.398150        -1.103519
 C        -2.589924        -0.010430        -1.445010
 C        -2.468332        -1.113841        -2.450849
 C        -2.011908        -1.324599        -1.048849
 C        -0.547221        -1.191973        -0.663590
 C         0.004874         0.018325         0.111173
 O         1.126154         0.057622         0.567262
 C        -0.951279         1.262046        -0.122103
 C        -1.610619         1.146419        -1.462760
 H        -4.117997         0.222318        -0.104640
 H        -3.466223        -1.577984        -2.648283
 H        -1.815917        -1.386815        -3.237380
 H        -2.706625        -1.972162        -0.508626
 H        -0.354784        -1.968178         0.094227
 H         0.183595        -1.218486        -1.487570
 H        -1.725254         1.318619         0.698013
 H        -0.311489         2.213294        -0.026636
 H        -2.302633         2.037041        -1.758646
 H        -0.988638         0.897625        -2.232923
