19
Iteration:  3827
 O        -3.764886         0.319317        -0.706162
 C        -2.523637         0.012883        -1.432069
 C        -2.631453        -1.136831        -2.405948
 C        -1.810433        -1.354658        -1.157334
 C        -0.259727        -1.190487        -0.960425
 C        -0.140185        -0.000438         0.020762
 O         0.510267        -0.006945         1.070257
 C        -0.683125         1.262011        -0.509587
 C        -1.669555         1.225163        -1.680157
 H        -3.498194         0.747540         0.184260
 H        -3.681502        -1.472979        -2.483504
 H        -1.989434        -1.196989        -3.272963
 H        -2.377227        -1.613780        -0.247028
 H         0.206871        -2.132059        -0.689634
 H         0.308964        -0.867948        -1.856634
 H        -1.201240         1.732020         0.312049
 H         0.084715         1.983024        -0.732966
 H        -2.508011         2.022559        -1.642980
 H        -1.232932         1.262438        -2.648947
