19
Iteration:  4716
 O        -4.099237         0.105463        -0.981197
 C        -2.646525         0.078457        -1.249896
 C        -2.085489        -0.709213        -2.523061
 C        -1.949944        -1.253851        -1.124024
 C        -0.586488        -1.427410        -0.621692
 C         0.005877        -0.064301        -0.103374
 O         0.693038         0.077833         0.859771
 C        -0.351493         1.082304        -0.974415
 C        -1.935639         1.350593        -0.815434
 H        -4.491066         0.435079        -1.888810
 H        -2.842373        -1.046392        -3.347164
 H        -1.036263        -0.389829        -2.994392
 H        -2.636552        -2.020229        -0.781417
 H        -0.558125        -2.099709         0.280132
 H         0.114681        -1.923731        -1.333564
 H         0.321447         1.788958        -0.622058
 H        -0.041044         0.951909        -1.996562
 H        -2.084016         1.727200         0.223510
 H        -2.235446         2.242252        -1.405689
