19
Iteration:  2402charge 0 multiplicity 1
 O        -4.003338         0.340208        -1.501912
 C        -2.586744         0.018546        -1.372096
 C        -2.057129        -0.917577        -2.352548
 C        -2.076454        -1.287582        -0.880519
 C        -0.832635        -1.348815        -0.054495
 C         0.041072        -0.079349        -0.038915
 O         1.271281         0.026516         0.042933
 C        -0.811929         1.202441        -0.129625
 C        -1.877168         1.311932        -1.175107
 H        -4.461391        -0.501369        -1.192704
 H        -2.863530        -1.465183        -2.974293
 H        -1.073409        -0.791207        -2.768598
 H        -2.978716        -1.840754        -0.542409
 H        -1.357328        -1.496991         0.935932
 H        -0.230469        -2.241789        -0.367938
 H        -1.345380         1.270731         0.823426
 H        -0.183624         2.112849        -0.162543
 H        -2.635553         2.059414        -0.932765
 H        -1.299481         1.518805        -2.237548
