19
Iteration:  2200
 O        -4.035295         0.068083        -1.321749
 C        -2.599628         0.029035        -1.444220
 C        -2.048915        -0.932755        -2.431176
 C        -2.101416        -1.255356        -0.929347
 C        -0.877962        -1.207633        -0.018799
 C         0.017583        -0.018469        -0.015979
 O         1.215356        -0.174942         0.032759
 C        -0.775771         1.352469        -0.046997
 C        -1.775314         1.378605        -1.290117
 H        -4.152166         0.801759        -1.874332
 H        -2.730787        -1.321754        -3.252906
 H        -1.049502        -0.958117        -2.661450
 H        -2.968037        -1.899126        -0.676435
 H        -1.157356        -1.243488         1.033079
 H        -0.250931        -2.097165        -0.110017
 H        -1.286869         1.468998         0.855575
 H        -0.061294         2.141867        -0.068254
 H        -2.486566         2.209477        -1.083820
 H        -1.361817         1.721258        -2.213783
