19
Iteration:  4463
 O        -4.114949         0.241188        -1.624116
 C        -2.662752         0.000109        -1.389933
 C        -1.952355        -0.803045        -2.368702
 C        -2.017781        -1.295835        -0.916564
 C        -0.841449        -1.367678         0.035528
 C         0.112922        -0.098912        -0.104585
 O         1.272938        -0.071771        -0.021429
 C        -0.648833         1.327027        -0.267362
 C        -2.094978         1.322065        -0.824041
 H        -4.542615         0.034534        -0.833045
 H        -2.545475        -1.389038        -2.943666
 H        -1.041720        -0.599507        -2.980223
 H        -2.574867        -2.192122        -1.148985
 H        -1.206198        -1.274206         1.101854
 H        -0.449237        -2.452261        -0.017198
 H        -0.596068         1.738900         0.737921
 H         0.050860         1.873919        -0.857148
 H        -2.751180         1.778045         0.041407
 H        -2.168141         2.044033        -1.556616
