19
Iteration:  1589charge 0 multiplicity 1
 O        -4.023680         0.223485        -1.548519
 C        -2.673541         0.101592        -1.419967
 C        -1.937435        -0.878172        -2.321671
 C        -2.176475        -1.303014        -0.900396
 C        -0.856103        -1.369397         0.017253
 C         0.058070        -0.044330        -0.052733
 O         1.259275        -0.128526        -0.013396
 C        -0.791658         1.246593        -0.117734
 C        -1.818910         1.409892        -1.138679
 H        -4.099228         0.086018        -0.630198
 H        -2.606142        -1.208741        -3.038012
 H        -1.002536        -0.389669        -2.690237
 H        -2.962832        -2.071444        -0.815068
 H        -1.254998        -1.466438         1.072516
 H        -0.408593        -2.345145        -0.229198
 H        -1.335262         1.144641         0.832388
 H        -0.111430         2.110999        -0.295369
 H        -2.623897         2.117467        -0.703310
 H        -1.569279         1.819961        -2.115731
