19
Iteration:  2517
 O        -4.001857         0.157448        -1.236464
 C        -2.665810         0.068647        -1.450889
 C        -2.125912        -0.967809        -2.481500
 C        -2.098057        -1.184573        -0.929841
 C        -0.779500        -1.266738        -0.126096
 C         0.030316         0.039261        -0.087395
 O         1.192995        -0.076725         0.203509
 C        -0.834658         1.284360        -0.080575
 C        -1.681475         1.210220        -1.300215
 H        -4.344529         1.018523        -1.684729
 H        -2.982360        -1.544753        -2.991426
 H        -1.218991        -0.720570        -2.953122
 H        -2.794735        -2.050012        -0.746064
 H        -1.020857        -1.543098         0.923178
 H        -0.081381        -2.066923        -0.354545
 H        -1.497991         1.131817         0.777249
 H        -0.277617         2.235457        -0.078449
 H        -2.343967         2.158934        -1.355595
 H        -1.194129         1.163481        -2.317931
