19
Iteration:  4510charge 0 multiplicity 1
 O        -4.098104        -0.015720        -1.518776
 C        -2.653697         0.092465        -1.327481
 C        -1.843431        -0.673236        -2.316768
 C        -2.059123        -1.253930        -1.005749
 C        -0.872032        -1.337041        -0.106054
 C         0.000183        -0.073461        -0.169742
 O         1.224815        -0.184515         0.245353
 C        -0.525145         1.347800        -0.583070
 C        -2.113603         1.368435        -0.734657
 H        -4.628587         0.456167        -0.854014
 H        -2.569205        -1.141190        -3.160094
 H        -0.926103        -0.448794        -2.946250
 H        -2.916840        -1.917747        -0.813551
 H        -1.245023        -1.562321         0.878960
 H        -0.212051        -2.147573        -0.268571
 H        -0.211998         2.146253         0.032587
 H        -0.176038         1.612001        -1.659102
 H        -2.496548         1.439471         0.358668
 H        -2.403058         2.378512        -1.071064
