19
Iteration:  4210charge 0 multiplicity 1
 O        -4.025880         0.193138        -1.419420
 C        -2.587673         0.035733        -1.407881
 C        -2.017858        -0.970672        -2.342338
 C        -2.083267        -1.270917        -0.873177
 C        -0.740443        -1.308353        -0.140490
 C         0.009546         0.019946        -0.081987
 O         1.189017        -0.075740        -0.014788
 C        -0.874784         1.266661        -0.021858
 C        -1.827955         1.398744        -1.204161
 H        -4.409764         0.001452        -0.491320
 H        -2.810845        -1.312146        -2.890158
 H        -1.067789        -0.749231        -2.878825
 H        -2.947788        -1.871112        -0.635424
 H        -0.868371        -1.832749         0.798428
 H        -0.142076        -2.006503        -0.771458
 H        -1.302393         1.043312         0.978203
 H        -0.312932         2.199702         0.100828
 H        -2.520685         2.318088        -1.142507
 H        -1.318656         1.555585        -2.063135
