19
Iteration:  1616charge 0 multiplicity 1
 O        -4.001829         0.320347        -1.510425
 C        -2.668707         0.037075        -1.352670
 C        -1.917109        -0.966119        -2.403894
 C        -2.070850        -1.190657        -0.871804
 C        -0.795785        -1.397952        -0.003812
 C        -0.080624        -0.088005        -0.106089
 O         1.175294        -0.098122        -0.051385
 C        -0.836075         1.268107         0.007937
 C        -1.793847         1.442132        -1.159634
 H        -4.369874        -0.224413        -0.855482
 H        -2.454254        -1.759079        -3.087039
 H        -0.983443        -0.616038        -2.798374
 H        -2.824737        -1.954439        -0.606879
 H        -1.114486        -1.617701         1.025850
 H        -0.433522        -2.324369        -0.441268
 H        -1.316889         1.245606         0.965858
 H        -0.008648         1.909620        -0.153557
 H        -2.503952         2.195731        -1.023343
 H        -1.372071         1.620639        -2.163496
