19
Iteration:  4153charge 0 multiplicity 1
 O        -4.042818         0.225465        -1.332633
 C        -2.650552        -0.007798        -1.451203
 C        -2.369489        -0.957492        -2.507416
 C        -2.063251        -1.350740        -0.950142
 C        -0.621962        -1.320631        -0.271758
 C         0.060393         0.034925        -0.039304
 O         1.223822         0.025023         0.310213
 C        -0.759538         1.315122        -0.065889
 C        -1.761064         1.269531        -1.278036
 H        -4.211527         0.579503        -0.420765
 H        -3.040624        -1.751124        -3.050696
 H        -1.518568        -0.832532        -3.130950
 H        -2.836977        -2.051103        -0.596036
 H        -0.821527        -1.635291         0.723842
 H         0.021056        -2.061963        -0.841606
 H        -1.255543         1.342260         0.910669
 H        -0.079839         2.260168        -0.159491
 H        -2.548283         2.041516        -0.974659
 H        -1.180327         1.585297        -2.131140
