19
Iteration:  4591charge 0 multiplicity 1
 O        -4.028419         0.155340        -1.303621
 C        -2.644433         0.088403        -1.344313
 C        -2.063948        -0.757337        -2.472670
 C        -2.015156        -1.262726        -1.031888
 C        -0.781105        -1.287726        -0.288884
 C         0.028471        -0.076902        -0.134128
 O         1.058919        -0.083225         0.593277
 C        -0.456560         1.244520        -0.830908
 C        -2.059659         1.286992        -0.789501
 H        -4.339990        -0.698148        -0.852676
 H        -2.800480        -1.043780        -3.052361
 H        -1.125878        -0.433481        -2.895457
 H        -2.635874        -2.116309        -0.796620
 H        -1.159095        -1.557519         0.618263
 H        -0.141833        -2.048605        -0.651422
 H        -0.226137         2.114422        -0.100338
 H        -0.020334         1.496122        -1.799750
 H        -2.286982         1.393750         0.231185
 H        -2.408907         2.195132        -1.410380
