19
Iteration:  1284
 O        -3.985134         0.112866        -1.673434
 C        -2.559000         0.114918        -1.448438
 C        -1.853892        -0.909568        -2.303584
 C        -2.180974        -1.174983        -0.775344
 C        -0.895581        -1.268529         0.130160
 C        -0.025626        -0.066609        -0.085276
 O         1.165438        -0.182476        -0.360371
 C        -0.888777         1.204733         0.154814
 C        -1.780694         1.476052        -1.061295
 H        -4.399831         0.219751        -0.833462
 H        -2.512452        -1.488954        -2.926593
 H        -0.854820        -0.786956        -2.728145
 H        -2.858212        -1.953664        -0.483672
 H        -1.121774        -1.090110         1.156053
 H        -0.503234        -2.199101        -0.253491
 H        -1.275033         0.954781         1.108808
 H        -0.235216         2.042924         0.109141
 H        -2.411394         2.382244        -0.924506
 H        -1.061686         1.792658        -1.839707
