19
Iteration:  1639charge 0 multiplicity 1
 O        -3.978314         0.331422        -1.487233
 C        -2.569684         0.029812        -1.514921
 C        -2.054288        -0.982170        -2.387935
 C        -2.114006        -1.310329        -0.926301
 C        -0.856092        -1.241073        -0.041498
 C        -0.000150         0.018937         0.014180
 O         1.222086        -0.099682        -0.107416
 C        -0.818869         1.240616         0.129199
 C        -1.771581         1.333383        -1.154227
 H        -4.417824        -0.513159        -1.033460
 H        -2.893636        -1.353875        -3.059672
 H        -1.050256        -1.141755        -2.720103
 H        -2.958013        -1.843696        -0.437657
 H        -1.275044        -1.537322         0.901585
 H        -0.187200        -2.045436        -0.349725
 H        -1.523023         1.163334         0.937807
 H        -0.158057         2.102384         0.125555
 H        -2.534284         2.057697        -1.013033
 H        -1.242283         1.619949        -2.068604
