19
Iteration:  4227
 O        -3.953436         0.145746        -1.475642
 C        -2.573734         0.097152        -1.368688
 C        -2.067292        -0.968347        -2.387574
 C        -2.103299        -1.300526        -0.888282
 C        -0.805575        -1.322691        -0.125031
 C         0.019263        -0.065357        -0.012369
 O         1.164702        -0.010345        -0.150352
 C        -0.842863         1.315659         0.081665
 C        -1.807946         1.358005        -1.141842
 H        -4.322497         0.261851        -0.501235
 H        -2.685239        -1.586856        -3.193567
 H        -1.049859        -0.795503        -2.692177
 H        -2.858345        -2.043246        -0.558016
 H        -1.152039        -1.349304         0.970842
 H        -0.144664        -2.146218        -0.527415
 H        -1.609370         1.463381         0.862083
 H        -0.074524         2.144789         0.091362
 H        -2.592986         2.073552        -0.961023
 H        -1.272528         1.720340        -2.179894
