19
Iteration:  3266
 O        -3.961010         0.217578        -1.572327
 C        -2.575585         0.004115        -1.403576
 C        -1.899005        -0.826093        -2.309878
 C        -2.094315        -1.266576        -0.748400
 C        -0.869684        -1.457521         0.071726
 C        -0.042532        -0.107464        -0.092807
 O         1.201027         0.008879        -0.300382
 C        -0.897523         1.219880         0.014754
 C        -1.853432         1.375440        -1.119795
 H        -4.457148         0.683720        -0.850693
 H        -2.301933        -1.408537        -3.152720
 H        -0.894933        -0.518387        -2.297277
 H        -2.976730        -1.893631        -0.593664
 H        -1.265720        -1.507491         1.078936
 H        -0.242142        -2.333386        -0.169609
 H        -1.446102         1.254885         0.900087
 H        -0.197253         2.084283         0.076609
 H        -2.525906         2.253463        -0.815833
 H        -1.307258         1.733407        -1.977064
