19
Iteration:  4961
 O        -4.128103         0.107171        -1.125328
 C        -2.666668         0.076018        -1.385103
 C        -2.123022        -0.654370        -2.617077
 C        -1.956091        -1.263025        -1.184697
 C        -0.758913        -1.371620        -0.317967
 C         0.122150        -0.050312        -0.088529
 O         1.082904        -0.085896         0.639908
 C        -0.480930         1.178789        -0.669453
 C        -2.016240         1.333606        -0.829480
 H        -4.568605         0.462828        -1.867547
 H        -2.866372        -1.219077        -3.145868
 H        -1.219212        -0.294548        -3.038672
 H        -2.690320        -2.022052        -0.970791
 H        -0.997820        -1.662620         0.710570
 H        -0.200689        -2.173678        -0.631550
 H         0.013072         2.002430        -0.071967
 H        -0.015324         1.211704        -1.621098
 H        -2.412434         1.481730         0.266717
 H        -2.328865         2.156702        -1.526278
