19
Iteration:  4563charge 0 multiplicity 1
 O        -4.151419         0.268052        -1.410294
 C        -2.742105         0.023445        -1.388154
 C        -2.056027        -0.727096        -2.554645
 C        -2.018809        -1.362006        -1.123333
 C        -0.806107        -1.312704        -0.117267
 C         0.096177        -0.055945        -0.024010
 O         1.226519         0.021376         0.481216
 C        -0.485342         1.202258        -0.783527
 C        -2.024495         1.234040        -0.658456
 H        -4.601253        -0.296480        -0.775454
 H        -2.733627        -1.264219        -3.400884
 H        -1.029041        -0.431694        -2.922125
 H        -2.523887        -2.348540        -1.028233
 H        -1.462124        -1.424200         0.854059
 H        -0.082739        -2.221765        -0.185398
 H        -0.118432         2.089302        -0.365371
 H        -0.239569         1.244206        -1.875982
 H        -2.170451         1.091818         0.481649
 H        -2.364245         2.192872        -0.914178
