19
Iteration:  2903charge 0 multiplicity 1
 O        -3.923393         0.292910        -1.438186
 C        -2.546757         0.065148        -1.439273
 C        -2.044503        -0.985979        -2.389896
 C        -2.032961        -1.309091        -0.965848
 C        -0.864299        -1.370926         0.012830
 C        -0.025068        -0.078184        -0.038312
 O         1.151317         0.048302        -0.128558
 C        -0.890953         1.202203         0.001105
 C        -1.765234         1.331423        -1.111788
 H        -4.214927         0.500948        -0.595469
 H        -2.849510        -1.489924        -2.775879
 H        -1.317295        -0.618414        -3.141444
 H        -2.698633        -2.151735        -0.874348
 H        -1.439140        -1.414011         0.989540
 H        -0.227423        -2.257319        -0.169805
 H        -1.435610         1.240625         1.011208
 H        -0.312132         2.107684         0.052188
 H        -2.504638         2.135155        -0.957930
 H        -1.166230         1.512710        -2.106327
