19
Iteration:   679
 O        -3.965824         0.314174        -1.026988
 C        -2.486100         0.081953        -1.477282
 C        -2.564757        -1.171084        -2.321843
 C        -1.959463        -1.245300        -0.973454
 C        -0.461896        -1.320569        -0.805621
 C         0.027763        -0.062837        -0.029218
 O         0.784434         0.001748         0.946029
 C        -0.649799         1.253488        -0.412007
 C        -1.646405         1.357721        -1.584701
 H        -3.797981         0.377138        -0.163831
 H        -3.570857        -1.479551        -2.450396
 H        -1.782133        -1.293334        -3.070586
 H        -2.619834        -1.703633        -0.200811
 H        -0.252151        -2.192179        -0.129739
 H        -0.002075        -1.451553        -1.806271
 H        -1.286100         1.582266         0.396720
 H         0.068040         2.097874        -0.512465
 H        -2.329537         2.296653        -1.643512
 H        -1.209122         1.271394        -2.636836
