19
Iteration:  1776charge 0 multiplicity 1
 O        -4.019709         0.308147        -1.313046
 C        -2.592596         0.061838        -1.448374
 C        -2.097596        -1.038944        -2.385929
 C        -2.139553        -1.292490        -0.867516
 C        -0.763259        -1.322346        -0.189652
 C        -0.004909         0.006847        -0.063843
 O         1.207549        -0.023932         0.152039
 C        -0.835811         1.238967        -0.034076
 C        -1.760653         1.242378        -1.366785
 H        -4.153782         1.161608        -1.701119
 H        -2.788561        -1.686436        -2.954914
 H        -1.144312        -0.664162        -2.589039
 H        -2.966116        -1.942369        -0.551092
 H        -0.959774        -1.635438         0.827589
 H        -0.082483        -2.055634        -0.618788
 H        -1.533966         1.107369         0.865995
 H        -0.180531         2.097812         0.146894
 H        -2.351366         2.176895        -1.160576
 H        -1.075260         1.414437        -2.209396
