19
Iteration:  4115charge 0 multiplicity 1
 O        -4.013984         0.207943        -1.130465
 C        -2.604000         0.058176        -1.496138
 C        -2.295801        -1.006393        -2.458760
 C        -2.083113        -1.261844        -0.926472
 C        -0.641994        -1.377279        -0.441872
 C        -0.003203        -0.024902        -0.018149
 O         1.142094         0.034831         0.425543
 C        -0.835416         1.275813        -0.159767
 C        -1.699567         1.318745        -1.407407
 H        -4.091732         0.464010        -0.258286
 H        -2.992767        -1.603518        -2.934123
 H        -1.331595        -0.620171        -2.989690
 H        -2.830312        -1.831795        -0.374242
 H        -0.245628        -1.988825         0.414426
 H         0.058036        -1.741687        -1.177086
 H        -1.616351         1.223461         0.631742
 H        -0.246967         2.108426         0.050716
 H        -2.354996         2.142173        -1.556685
 H        -1.008470         1.454247        -2.408468
