19
Iteration:  2863
 O        -3.974628         0.207321        -1.456690
 C        -2.593454         0.124060        -1.440074
 C        -2.045348        -0.992805        -2.333534
 C        -2.141290        -1.243256        -0.875350
 C        -0.838887        -1.369164        -0.169114
 C         0.010577        -0.014440         0.016192
 O         1.186400         0.016752        -0.131847
 C        -0.938794         1.228404         0.142266
 C        -1.675128         1.284527        -1.228940
 H        -4.201221         0.630958        -0.524116
 H        -2.809370        -1.557202        -2.812367
 H        -1.092669        -0.856009        -2.993946
 H        -3.055968        -1.807592        -0.564313
 H        -0.897373        -1.607525         0.875206
 H        -0.136630        -2.054009        -0.702161
 H        -1.741463         1.055607         0.835443
 H        -0.413825         2.115341         0.470867
 H        -2.108830         2.240458        -1.350359
 H        -0.825625         1.325942        -1.964558
