19
Iteration:  1420
 O        -3.967818         0.236642        -1.644848
 C        -2.605737         0.046369        -1.355263
 C        -1.785407        -0.835885        -2.312861
 C        -2.090894        -1.274822        -0.856531
 C        -0.942159        -1.351600         0.154141
 C         0.008547        -0.152164        -0.067696
 O         1.214985        -0.210594        -0.254426
 C        -0.817599         1.382363        -0.098309
 C        -1.980568         1.387367        -0.987799
 H        -4.290386         0.459342        -0.757827
 H        -2.260318        -1.396916        -3.116662
 H        -0.793083        -0.352498        -2.482856
 H        -2.826033        -2.071345        -0.860927
 H        -1.463951        -1.373815         1.118038
 H        -0.666419        -2.394574        -0.002043
 H        -1.108632         1.480435         0.921070
 H        -0.010005         2.088892        -0.348386
 H        -2.758670         2.054013        -0.685358
 H        -1.768690         1.939601        -1.923172
