19
Iteration:  4470charge 0 multiplicity 1
 O        -4.124993         0.198682        -1.604668
 C        -2.651769         0.054114        -1.381531
 C        -1.930759        -0.798388        -2.340795
 C        -1.990192        -1.300591        -0.961156
 C        -0.844018        -1.361030         0.009025
 C         0.009951        -0.092785        -0.117452
 O         1.301589        -0.102482         0.017472
 C        -0.668809         1.308982        -0.312600
 C        -2.047358         1.345267        -0.809977
 H        -4.629499         0.167185        -0.760923
 H        -2.668985        -1.345604        -2.998730
 H        -1.016818        -0.599362        -2.801096
 H        -2.537440        -2.277633        -0.922638
 H        -1.280370        -1.263859         1.060013
 H        -0.250219        -2.331285        -0.142143
 H        -0.602905         1.908664         0.667182
 H         0.020436         1.835889        -0.971295
 H        -2.689935         1.597886         0.012794
 H        -2.253003         2.176574        -1.585754
