19
Iteration:   107charge 0 multiplicity 1
 O        -3.973541         0.122705        -1.647449
 C        -2.616737         0.085132        -1.431028
 C        -2.117353        -1.037700        -2.288240
 C        -2.208001        -1.236899        -0.775172
 C        -0.814829        -1.275375        -0.005555
 C        -0.000473        -0.038303        -0.072698
 O         1.244928        -0.132868        -0.030819
 C        -0.657692         1.360229        -0.102948
 C        -1.901132         1.388651        -1.117933
 H        -4.395292         0.290517        -0.870954
 H        -2.835962        -1.548067        -2.893363
 H        -1.160433        -0.831581        -2.670505
 H        -3.000264        -1.833084        -0.409246
 H        -0.978875        -1.349238         1.118890
 H        -0.132141        -2.070760        -0.251548
 H        -0.783830         1.704451         0.965514
 H         0.142159         1.992573        -0.555914
 H        -2.615547         2.285541        -0.883911
 H        -1.350256         1.842019        -1.986733
