19
Iteration:  2696charge 0 multiplicity 1
 O        -3.998685         0.247967        -1.290777
 C        -2.631853         0.067295        -1.336054
 C        -2.218168        -0.932989        -2.488880
 C        -2.048758        -1.251427        -1.001822
 C        -0.744814        -1.357318        -0.230916
 C        -0.010147        -0.041742         0.076287
 O         1.213883        -0.003879         0.276115
 C        -0.803780         1.255409        -0.142721
 C        -1.712806         1.348790        -1.373661
 H        -4.417832        -0.512741        -0.880561
 H        -2.953912        -1.757378        -2.768789
 H        -1.469918        -0.874800        -3.278065
 H        -2.886667        -1.750191        -0.535766
 H        -1.065979        -1.725023         0.720469
 H        -0.210180        -2.162436        -0.762495
 H        -1.288218         1.464974         0.798629
 H        -0.050638         2.057832        -0.189079
 H        -2.404288         2.159681        -1.373044
 H        -1.209351         1.425990        -2.311517
