19
Iteration:  3002
 O        -4.018018         0.265821        -1.616593
 C        -2.662868        -0.018803        -1.395529
 C        -2.001030        -0.961001        -2.357946
 C        -2.099623        -1.304722        -0.835142
 C        -0.792541        -1.307974        -0.099700
 C         0.032632        -0.069919        -0.053704
 O         1.204848        -0.035768        -0.056716
 C        -0.725915         1.242445        -0.119925
 C        -1.915776         1.313346        -0.951307
 H        -4.336514         0.812226        -0.936059
 H        -2.621167        -1.205942        -3.213780
 H        -1.028006        -0.609834        -2.557830
 H        -2.720495        -2.194197        -0.609350
 H        -1.191787        -1.166280         0.967132
 H        -0.262109        -2.288388        -0.193583
 H        -0.994390         1.590577         0.965019
 H        -0.031344         2.016307        -0.352386
 H        -2.606691         1.977896        -0.448748
 H        -1.776226         1.935741        -1.902412
