19
Iteration:  4595charge 0 multiplicity 1
 O        -4.021793         0.129557        -1.292293
 C        -2.660819         0.069403        -1.324476
 C        -2.054651        -0.738634        -2.451457
 C        -2.034120        -1.263560        -1.045757
 C        -0.759018        -1.300146        -0.308937
 C         0.055919        -0.064332        -0.091121
 O         1.035879        -0.098495         0.591794
 C        -0.488288         1.263147        -0.847362
 C        -2.025072         1.351923        -0.838787
 H        -4.328615        -0.671830        -0.886103
 H        -2.963672        -1.044643        -3.145699
 H        -1.044683        -0.512058        -2.834260
 H        -2.707210        -2.113535        -0.789146
 H        -1.139582        -1.710220         0.719270
 H        -0.067549        -2.162092        -0.723348
 H        -0.202673         2.002862        -0.145532
 H        -0.016799         1.544095        -1.784953
 H        -2.348319         1.446767         0.243025
 H        -2.379722         2.189874        -1.333117
