19
Iteration:   357charge 0 multiplicity 1
 O        -4.032682         0.283336        -1.471077
 C        -2.602256         0.006766        -1.394643
 C        -1.966238        -1.028714        -2.275793
 C        -2.176908        -1.259496        -0.768969
 C        -0.818875        -1.333149        -0.016659
 C        -0.076215        -0.018832        -0.050323
 O         1.125452        -0.035065        -0.148177
 C        -0.796300         1.343701        -0.015495
 C        -1.695393         1.212957        -1.265172
 H        -4.069771         1.382282        -1.499842
 H        -2.713974        -1.530723        -2.958062
 H        -0.929196        -0.908483        -2.571208
 H        -2.959716        -2.012717        -0.472910
 H        -1.014232        -1.521016         1.074418
 H        -0.209208        -2.187115        -0.361047
 H        -1.318617         1.523406         0.908144
 H        -0.081402         2.147622        -0.167412
 H        -2.237632         2.160735        -1.268363
 H        -0.934388         1.169110        -2.135946
