19
Iteration:  4468
 O        -4.125596         0.210991        -1.611607
 C        -2.646794         0.035647        -1.390804
 C        -1.939637        -0.795165        -2.332145
 C        -1.992963        -1.295959        -0.951191
 C        -0.841813        -1.374509         0.019995
 C         0.024614        -0.096157        -0.116762
 O         1.303187        -0.093867         0.008991
 C        -0.674673         1.316936        -0.297598
 C        -2.053393         1.338295        -0.808013
 H        -4.661866         0.133495        -0.735512
 H        -2.677381        -1.388765        -3.016399
 H        -0.989952        -0.627118        -2.876467
 H        -2.516219        -2.267306        -1.019812
 H        -1.243851        -1.256281         1.017131
 H        -0.360031        -2.311470        -0.112151
 H        -0.605907         1.871548         0.665761
 H         0.062996         1.873585        -0.971072
 H        -2.662323         1.650444        -0.008103
 H        -2.249687         2.173737        -1.593636
