19
Iteration:  2813
 O        -3.994444         0.432530        -1.513690
 C        -2.606671        -0.015478        -1.476600
 C        -2.211877        -1.176181        -2.432501
 C        -2.081880        -1.237800        -0.812622
 C        -0.762736        -1.362279        -0.175760
 C         0.051355         0.007542        -0.052918
 O         1.299648         0.026415         0.039192
 C        -0.888020         1.247183         0.127795
 C        -1.797305         1.280366        -1.209682
 H        -4.163034         0.679373        -0.644256
 H        -3.042264        -1.768438        -2.932657
 H        -1.326668        -1.039040        -2.967391
 H        -2.679909        -2.116882        -0.657455
 H        -0.824103        -1.823005         0.858284
 H        -0.100734        -1.862660        -0.872222
 H        -1.505304         0.944796         1.029786
 H        -0.471637         2.265857         0.478232
 H        -2.687588         2.003595        -1.194077
 H        -1.073392         1.738866        -1.925981
