19
Iteration:  1890charge 0 multiplicity 1
 O        -4.023641         0.325258        -1.285117
 C        -2.617210         0.109801        -1.477677
 C        -2.146861        -1.021625        -2.391583
 C        -2.033089        -1.261140        -0.863284
 C        -0.747602        -1.461105        -0.195037
 C        -0.050879        -0.056873         0.025645
 O         1.183280        -0.030340         0.235133
 C        -0.755685         1.249803        -0.219547
 C        -1.801409         1.434359        -1.276120
 H        -4.517279         0.027410        -2.156792
 H        -2.774974        -1.685715        -2.906177
 H        -1.159777        -0.816348        -2.917892
 H        -2.797272        -1.974602        -0.568743
 H        -0.926322        -2.025423         0.719440
 H        -0.035557        -1.998091        -0.823721
 H        -1.135037         1.455103         0.814536
 H         0.030285         2.010562        -0.159519
 H        -2.556136         2.045723        -0.934867
 H        -1.412639         1.610052        -2.279337
