19
Iteration:  4723
 O        -4.128432         0.121496        -0.983741
 C        -2.626850         0.073431        -1.222010
 C        -2.100455        -0.663863        -2.531597
 C        -1.959020        -1.234129        -1.136468
 C        -0.516648        -1.400903        -0.576284
 C        -0.053431        -0.127581        -0.160081
 O         0.690726         0.078794         0.881493
 C        -0.337683         1.044581        -0.958140
 C        -1.884326         1.349126        -0.826100
 H        -4.551130         0.137568        -1.872444
 H        -2.802817        -0.997904        -3.340968
 H        -1.262632        -0.283090        -2.940383
 H        -2.629617        -2.098348        -0.859882
 H        -0.479060        -2.033176         0.251069
 H         0.245552        -1.823421        -1.201160
 H         0.310809         1.996218        -0.704656
 H        -0.183570         0.848820        -2.075818
 H        -2.128853         1.722798         0.177275
 H        -2.356797         2.115943        -1.617955
