19
Iteration:  1318charge 0 multiplicity 1
 O        -3.927592         0.257742        -1.767632
 C        -2.549313         0.067354        -1.390124
 C        -1.873154        -0.886093        -2.299615
 C        -2.173806        -1.359287        -0.715181
 C        -0.904186        -1.325466         0.160763
 C        -0.009893        -0.093988         0.021327
 O         1.110130        -0.104828        -0.421942
 C        -0.807834         1.230371         0.056245
 C        -1.881476         1.409936        -1.035244
 H        -4.333159         0.672454        -1.078825
 H        -2.432059        -1.288971        -3.087605
 H        -0.782576        -0.686090        -2.532781
 H        -2.839486        -2.209340        -0.496312
 H        -1.099072        -1.538197         1.185102
 H        -0.259242        -2.217167         0.038932
 H        -1.173740         1.480402         1.022897
 H        -0.265102         2.112129        -0.104012
 H        -2.492351         2.065886        -0.451603
 H        -1.412192         1.920547        -1.868710
