19
Iteration:  2901
 O        -3.918618         0.298061        -1.431219
 C        -2.547603         0.053497        -1.460816
 C        -2.028267        -0.984703        -2.400092
 C        -2.036228        -1.303917        -0.959910
 C        -0.853620        -1.370964         0.007709
 C        -0.037218        -0.073737        -0.038263
 O         1.143906         0.038415        -0.129819
 C        -0.883754         1.207552         0.017761
 C        -1.768761         1.328998        -1.121158
 H        -4.214330         0.539380        -0.550537
 H        -2.926332        -1.579181        -2.747366
 H        -1.361106        -0.623991        -3.147766
 H        -2.745619        -2.102023        -0.910580
 H        -1.352843        -1.402683         1.037514
 H        -0.187528        -2.232280        -0.138378
 H        -1.487399         1.209935         1.004806
 H        -0.283322         2.178987         0.069345
 H        -2.529791         2.139011        -0.973594
 H        -1.206108         1.488326        -2.021212
