19
Iteration:   850charge 0 multiplicity 1
 O        -3.898291         0.286121        -0.841284
 C        -2.605133         0.036063        -1.484924
 C        -2.732655        -1.112988        -2.374225
 C        -1.886873        -1.174953        -1.024827
 C        -0.219257        -1.158682        -0.941526
 C        -0.011013         0.009831         0.043817
 O         0.517326        -0.128799         1.128977
 C        -0.519524         1.355119        -0.544629
 C        -1.598082         1.112746        -1.659504
 H        -3.651488         0.618182        -0.055364
 H        -3.639473        -1.854569        -2.334963
 H        -2.185198        -0.937689        -3.301180
 H        -2.544074        -1.651457        -0.241436
 H        -0.004807        -2.131777        -0.432454
 H         0.175307        -0.893460        -1.906339
 H        -1.014158         2.059994         0.170658
 H         0.364072         1.887629        -0.830133
 H        -2.011982         2.008606        -1.999548
 H        -1.105383         0.846541        -2.590446
