19
Iteration:  3709
 O        -3.898283         0.317457        -0.870658
 C        -2.593474         0.062718        -1.413631
 C        -2.563590        -1.123315        -2.380381
 C        -1.875372        -1.323629        -1.095589
 C        -0.342294        -1.248844        -0.843020
 C        -0.103613         0.024687         0.040337
 O         0.780674        -0.059220         0.910890
 C        -0.795778         1.426633        -0.439231
 C        -1.634675         1.154799        -1.617277
 H        -3.640244         0.763825         0.055484
 H        -3.574099        -1.587443        -2.631370
 H        -1.953675        -1.083510        -3.236890
 H        -2.466895        -2.037484        -0.485960
 H         0.035187        -2.073619        -0.193452
 H         0.414564        -1.278402        -1.646459
 H        -1.474875         1.491791         0.467838
 H        -0.016619         2.181637        -0.422955
 H        -2.175227         1.999256        -1.796012
 H        -0.938741         1.095251        -2.527832
