19
Iteration:  3924charge 0 multiplicity 1
 O        -3.826942         0.289982        -0.871843
 C        -2.617436         0.031272        -1.459611
 C        -2.599044        -1.173061        -2.436961
 C        -1.838426        -1.281071        -1.002473
 C        -0.403764        -1.220789        -0.836014
 C        -0.032991         0.008523        -0.052961
 O         0.669385        -0.104991         0.992270
 C        -0.646716         1.437670        -0.465432
 C        -1.696862         1.289341        -1.588395
 H        -3.857907        -0.202929         0.048292
 H        -3.217888        -1.996813        -2.301218
 H        -2.034503        -1.155037        -3.420467
 H        -2.527918        -1.885474        -0.381707
 H         0.078968        -2.037101        -0.345083
 H         0.161538        -1.150678        -1.761633
 H        -1.117611         1.798973         0.474976
 H         0.174983         2.201494        -0.713253
 H        -2.428210         2.275920        -1.627116
 H        -1.264474         1.369540        -2.554495
