19
Iteration:  3911
 O        -3.800201         0.379128        -0.810780
 C        -2.556062        -0.059013        -1.465699
 C        -2.621591        -1.272317        -2.438070
 C        -1.874707        -1.255938        -1.097131
 C        -0.288166        -1.192240        -0.861560
 C        -0.059575         0.038581        -0.032118
 O         0.617583        -0.054653         1.024505
 C        -0.638447         1.315968        -0.458994
 C        -1.758761         1.318606        -1.597295
 H        -3.832167         0.012776         0.035204
 H        -3.653639        -1.774700        -2.644393
 H        -2.021520        -1.171357        -3.356861
 H        -2.216779        -1.894798        -0.274139
 H         0.022092        -2.102319        -0.435894
 H         0.102266        -1.011703        -1.882711
 H        -1.080145         1.688132         0.507593
 H         0.237845         2.064449        -0.658264
 H        -2.437529         2.262822        -1.529070
 H        -1.207640         1.292733        -2.525047
