19
Iteration:   968charge 0 multiplicity 1
 O        -3.902498         0.446568        -1.075403
 C        -2.577558        -0.038006        -1.408708
 C        -2.537994        -1.164068        -2.434274
 C        -2.022415        -1.306607        -0.934004
 C        -0.489596        -1.288217        -0.794443
 C        -0.043176         0.021262         0.006921
 O         0.892810         0.029897         0.804730
 C        -0.786961         1.299374        -0.266870
 C        -1.562746         1.161265        -1.511341
 H        -3.866529         0.999257        -0.335324
 H        -3.531767        -1.651450        -2.625389
 H        -1.646723        -1.139721        -3.142428
 H        -2.575202        -1.994970        -0.240088
 H        -0.117212        -2.204468        -0.269929
 H         0.016030        -1.116241        -1.786172
 H        -1.410100         1.477368         0.622613
 H         0.050302         2.008265        -0.230306
 H        -2.240214         1.974280        -1.910289
 H        -0.851863         1.087347        -2.403987
