19
Iteration:  4611charge 0 multiplicity 1
 O        -4.109825         0.084205        -1.260402
 C        -2.635665         0.111916        -1.301482
 C        -2.072040        -0.705944        -2.490366
 C        -2.067685        -1.316669        -1.030305
 C        -0.696612        -1.451443        -0.318584
 C         0.004496        -0.038201        -0.115472
 O         1.015503        -0.086169         0.622182
 C        -0.429559         1.292658        -0.738105
 C        -2.006692         1.450176        -0.896931
 H        -4.395214        -0.765066        -0.801020
 H        -2.662191        -1.161908        -3.226048
 H        -1.088098        -0.394980        -2.872653
 H        -2.863742        -2.017151        -0.852233
 H        -0.631859        -1.856689         0.688872
 H        -0.015855        -1.936106        -0.943429
 H         0.080416         2.243065        -0.341951
 H        -0.041684         1.072147        -1.784230
 H        -2.391590         1.823760         0.070167
 H        -2.210513         2.192156        -1.804344
