19
Iteration:  3779
 O        -3.903052         0.202648        -0.867394
 C        -2.640617         0.046180        -1.389709
 C        -2.574012        -1.063859        -2.334886
 C        -1.864626        -1.324315        -0.959269
 C        -0.325388        -1.110708        -0.962275
 C        -0.049760         0.112055         0.006099
 O         0.546069        -0.185959         1.005015
 C        -0.584823         1.418266        -0.523291
 C        -1.580785         1.198890        -1.629044
 H        -3.682780         0.160606         0.096230
 H        -3.518448        -1.529028        -2.515756
 H        -1.975907        -0.986261        -3.295133
 H        -2.190391        -2.052445        -0.235570
 H         0.092117        -1.936332        -0.372367
 H         0.161929        -1.247327        -1.918218
 H        -1.081600         2.075682         0.207078
 H         0.193607         2.067023        -1.038667
 H        -2.224368         2.173978        -1.725780
 H        -1.206325         0.963533        -2.645965
