19
Iteration:  1705
 O        -3.863950         0.476844        -1.367987
 C        -2.591136         0.054709        -1.464682
 C        -2.046354        -1.038613        -2.386670
 C        -2.089894        -1.279172        -0.783560
 C        -0.820812        -1.409964        -0.105103
 C        -0.045591        -0.020865        -0.008783
 O         1.148658         0.049937        -0.089378
 C        -0.999996         1.222763         0.112112
 C        -1.707163         1.197874        -1.310383
 H        -4.426232         0.055816        -1.959694
 H        -2.774535        -1.661720        -2.819194
 H        -1.035293        -0.768580        -2.682747
 H        -2.964059        -1.873686        -0.466340
 H        -0.771617        -1.979912         0.828324
 H        -0.230862        -2.022893        -0.808446
 H        -1.553567         0.940085         0.937649
 H        -0.385986         2.116358         0.307612
 H        -2.422642         1.972650        -1.394033
 H        -0.939083         1.365600        -2.058322
