19
Iteration:  1988charge 0 multiplicity 1
 O        -3.836035         0.352780        -1.192395
 C        -2.471902         0.027211        -1.465552
 C        -2.119694        -1.066608        -2.413018
 C        -2.152536        -1.353035        -0.903893
 C        -0.797928        -1.338509        -0.125778
 C        -0.094806        -0.041256         0.021546
 O         1.110765         0.057764        -0.060829
 C        -1.009854         1.256417         0.022582
 C        -1.619991         1.247473        -1.338548
 H        -4.081629         0.935629        -2.053722
 H        -2.868090        -1.352028        -3.237348
 H        -1.097094        -1.070404        -2.681145
 H        -3.051234        -1.836169        -0.419811
 H        -1.162342        -1.530506         0.888564
 H        -0.027582        -2.062352        -0.426082
 H        -1.759552         0.982871         0.765907
 H        -0.549004         2.168437         0.439722
 H        -2.387870         2.213647        -1.365913
 H        -0.769016         1.480555        -2.220105
