19
Iteration:  3036charge 0 multiplicity 1
 O        -4.097664         0.065376        -1.620988
 C        -2.635967         0.128487        -1.357422
 C        -1.923806        -0.873596        -2.383255
 C        -2.048849        -1.177872        -0.840138
 C        -0.844372        -1.251258         0.025490
 C         0.046950        -0.118355        -0.077800
 O         1.260488        -0.214577        -0.082054
 C        -0.701378         1.299802        -0.137709
 C        -1.979962         1.449844        -1.003523
 H        -4.531641         0.287850        -0.828682
 H        -2.515009        -1.451807        -3.169694
 H        -1.066644        -0.490076        -2.752806
 H        -2.644276        -2.105242        -0.570647
 H        -1.294411        -1.376803         1.050191
 H        -0.360168        -2.243886        -0.175520
 H        -1.190777         1.288312         0.917957
 H        -0.088933         2.168271        -0.274115
 H        -2.707591         2.075249        -0.510857
 H        -1.714540         2.019414        -1.959329
