19
Iteration:  1314charge 0 multiplicity 1
 O        -3.932514         0.214072        -1.764286
 C        -2.547341         0.082987        -1.366164
 C        -1.870017        -0.864888        -2.265281
 C        -2.197557        -1.336530        -0.763578
 C        -0.891740        -1.330867         0.151147
 C        -0.017461        -0.077776         0.017092
 O         1.107350        -0.108759        -0.417977
 C        -0.815645         1.228572         0.065238
 C        -1.838719         1.402631        -1.072770
 H        -4.517076         0.717878        -1.006083
 H        -2.374323        -1.408847        -3.101524
 H        -0.851593        -0.658445        -2.481313
 H        -2.900664        -2.097645        -0.472203
 H        -1.104941        -1.427923         1.258487
 H        -0.321472        -2.232141        -0.072239
 H        -1.145082         1.368973         1.126269
 H        -0.158990         2.145910        -0.079980
 H        -2.524454         1.999110        -0.403956
 H        -1.320555         1.929893        -1.869266
