19
Iteration:  4980charge 0 multiplicity 1
 O        -4.084653         0.139308        -1.228540
 C        -2.714002         0.040300        -1.409877
 C        -2.139648        -0.761052        -2.523244
 C        -2.059979        -1.320866        -1.156319
 C        -0.713904        -1.355231        -0.318714
 C         0.053852        -0.078382        -0.082830
 O         1.110964        -0.058971         0.527429
 C        -0.462553         1.308940        -0.552283
 C        -1.984117         1.265356        -0.797023
 H        -4.114751         1.013367        -1.624379
 H        -2.942629        -1.030283        -3.357010
 H        -1.237738        -0.375666        -2.988513
 H        -2.684565        -2.248574        -1.091059
 H        -1.132364        -1.611372         0.754744
 H         0.050164        -2.170561        -0.599254
 H        -0.138175         1.976891         0.185622
 H         0.206021         1.691281        -1.472937
 H        -2.401121         1.437411         0.175019
 H        -2.350686         2.111067        -1.458031
