19
Iteration:  2664charge 0 multiplicity 1
 O        -3.999661         0.439743        -1.256443
 C        -2.628910         0.037239        -1.465912
 C        -2.127194        -1.016129        -2.425587
 C        -2.102344        -1.304353        -0.873340
 C        -0.678608        -1.309970        -0.309563
 C        -0.002137         0.001546        -0.071286
 O         1.192460        -0.001916         0.284099
 C        -0.890799         1.174801        -0.104835
 C        -1.737360         1.257810        -1.361097
 H        -4.565148        -0.333788        -1.133572
 H        -2.910261        -1.776367        -2.923681
 H        -1.115939        -0.843483        -2.929860
 H        -2.945429        -1.839572        -0.424746
 H        -0.668388        -1.602476         0.733747
 H        -0.060620        -2.103562        -0.831370
 H        -1.559713         1.169757         0.825704
 H        -0.247106         2.056517         0.013076
 H        -2.457812         1.952824        -1.088192
 H        -1.106459         1.514908        -2.136344
