19
Iteration:   532charge 0 multiplicity 1
 O        -3.953465         0.490428        -1.140014
 C        -2.653813         0.049712        -1.358192
 C        -2.297399        -1.006875        -2.421200
 C        -2.070376        -1.319409        -0.923829
 C        -0.660594        -1.419785        -0.388920
 C        -0.059189        -0.027587         0.053697
 O         1.118837         0.079932         0.379642
 C        -0.881585         1.282520        -0.155586
 C        -1.590371         1.136066        -1.482732
 H        -4.643928        -0.116289        -1.596657
 H        -3.015262        -1.638591        -2.995070
 H        -1.358424        -0.675137        -2.927770
 H        -2.799712        -2.097897        -0.538078
 H        -0.350926        -2.093374         0.438604
 H        -0.094934        -1.743614        -1.281544
 H        -1.510555         1.499574         0.731668
 H        -0.059358         1.981700        -0.223109
 H        -1.969998         2.041462        -1.936337
 H        -0.850579         0.676550        -2.155435
