19
Iteration:  4625charge 0 multiplicity 1
 O        -4.122890         0.123480        -1.236176
 C        -2.724543         0.058000        -1.341436
 C        -2.078900        -0.704826        -2.413307
 C        -1.995454        -1.223007        -1.041330
 C        -0.664024        -1.377378        -0.423393
 C        -0.039435        -0.089537        -0.042847
 O         1.028095        -0.016650         0.657675
 C        -0.438127         1.156296        -0.734576
 C        -1.972042         1.389686        -0.946768
 H        -4.358724        -0.580353        -0.587816
 H        -2.768267        -1.077202        -3.098868
 H        -1.233080        -0.290392        -2.916579
 H        -2.534272        -2.158734        -0.854653
 H        -0.774089        -2.034496         0.359482
 H        -0.002845        -1.961813        -1.038677
 H         0.164400         1.987114        -0.225608
 H         0.003891         1.151330        -1.735087
 H        -2.564073         1.921174        -0.245712
 H        -2.041283         2.103642        -1.846760
