19
Iteration:  3990charge 0 multiplicity 1
 O        -3.892193         0.318007        -0.989989
 C        -2.623053        -0.036057        -1.461060
 C        -2.649737        -1.126775        -2.514922
 C        -1.972538        -1.319158        -1.090704
 C        -0.344910        -1.204710        -0.689458
 C         0.032076         0.005282         0.008756
 O         0.936589         0.000380         0.859083
 C        -0.775917         1.313094        -0.316537
 C        -1.754917         1.235989        -1.517992
 H        -3.815955         0.846954        -0.257229
 H        -3.418894        -1.806094        -2.552089
 H        -1.845314        -1.012869        -3.245846
 H        -2.428206        -1.883366        -0.263575
 H        -0.131537        -2.084566        -0.085160
 H         0.290822        -1.361965        -1.556364
 H        -1.364615         1.557288         0.611907
 H         0.034747         2.154114        -0.370498
 H        -2.428416         2.220813        -1.633299
 H        -1.107544         1.141963        -2.337417
