19
Iteration:  4458charge 0 multiplicity 1
 O        -4.076893         0.265034        -1.647231
 C        -2.705898        -0.009284        -1.368021
 C        -1.935690        -0.807437        -2.429463
 C        -2.057737        -1.298430        -0.891746
 C        -0.845526        -1.349997         0.059941
 C         0.128598        -0.094014        -0.095766
 O         1.293847        -0.053872        -0.054296
 C        -0.613946         1.295690        -0.231351
 C        -2.145125         1.301586        -0.812842
 H        -4.490643        -0.106697        -0.777350
 H        -2.614501        -1.540376        -3.049299
 H        -1.084016        -0.397502        -2.964115
 H        -2.739842        -2.174832        -0.997011
 H        -1.174044        -1.293415         1.147935
 H        -0.410351        -2.384489         0.063026
 H        -0.600652         1.618674         0.869944
 H         0.090441         1.967304        -0.810503
 H        -2.804543         1.700349        -0.108853
 H        -2.097149         2.054207        -1.732198
