19
Iteration:  4187
 O        -4.076273         0.254778        -1.393677
 C        -2.701317         0.023637        -1.441054
 C        -2.183523        -0.942230        -2.402489
 C        -2.064840        -1.225389        -0.898981
 C        -0.676420        -1.343513        -0.250115
 C         0.118556        -0.039296        -0.056419
 O         1.252875         0.053650         0.165343
 C        -0.843215         1.153078        -0.057160
 C        -1.800766         1.330010        -1.259727
 H        -4.459358         0.060630        -0.582589
 H        -2.723700        -1.738581        -2.898327
 H        -1.177771        -0.762906        -2.735061
 H        -2.832614        -1.920048        -0.553876
 H        -0.937935        -1.614400         0.785056
 H        -0.044304        -2.229573        -0.571529
 H        -1.335672         1.199672         0.925885
 H        -0.125750         2.038091        -0.067224
 H        -2.512145         2.172552        -0.908711
 H        -1.419104         1.668792        -2.152924
