19
Iteration:  1587charge 0 multiplicity 1
 O        -4.024749         0.214015        -1.557350
 C        -2.670899         0.085166        -1.421706
 C        -1.941397        -0.876298        -2.342886
 C        -2.169059        -1.295703        -0.901467
 C        -0.866689        -1.362802         0.025893
 C         0.084068        -0.040369        -0.076889
 O         1.259936        -0.136431        -0.004661
 C        -0.779790         1.251929        -0.104743
 C        -1.834613         1.421566        -1.129367
 H        -4.232818         0.124394        -0.519556
 H        -2.674739        -1.291045        -3.072055
 H        -1.004832        -0.437036        -2.652491
 H        -2.975580        -2.076484        -0.804732
 H        -1.263971        -1.469889         1.029542
 H        -0.448540        -2.341699        -0.218426
 H        -1.355658         1.242886         0.893625
 H        -0.053252         2.141046        -0.231916
 H        -2.604473         2.121169        -0.715176
 H        -1.564456         1.817893        -2.114098
