19
Iteration:  3170
 O        -4.006327         0.191700        -1.761712
 C        -2.558786         0.078120        -1.397915
 C        -1.807582        -0.829225        -2.243758
 C        -2.059993        -1.297837        -0.747446
 C        -0.839374        -1.310985         0.154339
 C        -0.028380        -0.071327        -0.033611
 O         1.151573        -0.218589        -0.411583
 C        -0.833954         1.244406        -0.028739
 C        -2.021688         1.451446        -0.941248
 H        -4.388743         0.545447        -1.007768
 H        -2.333205        -1.386980        -3.040923
 H        -0.706643        -0.648104        -2.354623
 H        -2.671757        -2.055601        -0.330685
 H        -1.035393        -1.551116         1.248587
 H        -0.194459        -2.104816        -0.339454
 H        -1.163463         1.468735         1.061922
 H        -0.114072         2.126251        -0.220789
 H        -2.719450         1.965025        -0.374557
 H        -1.764526         2.164249        -1.837508
