19
Iteration:  4817
 O        -4.076595         0.107506        -1.098664
 C        -2.684258         0.086679        -1.298601
 C        -2.248038        -0.700414        -2.445094
 C        -1.962347        -1.287579        -1.079557
 C        -0.473866        -1.355160        -0.677970
 C        -0.000694        -0.106333        -0.143353
 O         0.733296        -0.066869         0.940786
 C        -0.333794         1.189090        -0.802155
 C        -1.925963         1.433908        -1.034345
 H        -4.129652         0.014520        -0.160562
 H        -3.123749        -1.113372        -2.963528
 H        -1.422963        -0.215320        -3.172123
 H        -2.560907        -2.198022        -0.913605
 H        -0.447494        -2.114568         0.193850
 H         0.173381        -1.864314        -1.416331
 H         0.261918         1.854959        -0.176726
 H         0.166583         1.061623        -1.745211
 H        -2.454237         1.997610        -0.168041
 H        -2.005608         2.080604        -1.940787
