19
Iteration:  3235
 O        -3.975284         0.117311        -1.641969
 C        -2.568698         0.068247        -1.427524
 C        -1.916880        -0.941629        -2.340942
 C        -2.001946        -1.221987        -0.805464
 C        -0.934140        -1.280008         0.073078
 C        -0.009046        -0.056068        -0.052942
 O         1.128709        -0.186351        -0.395454
 C        -0.840717         1.341499         0.174959
 C        -1.847977         1.471581        -1.003531
 H        -4.479838         0.039471        -0.802585
 H        -2.447899        -1.686956        -3.028409
 H        -1.012779        -0.780264        -2.844415
 H        -2.767466        -1.971606        -0.673415
 H        -1.366299        -1.335484         1.108032
 H        -0.216533        -2.125146        -0.124871
 H        -1.316491         1.386425         1.192375
 H        -0.107756         2.216201         0.120084
 H        -2.574182         2.142872        -0.712366
 H        -1.293977         1.912028        -1.871186
