19
Iteration:  4039charge 0 multiplicity 1
 O        -3.908688         0.334536        -1.061041
 C        -2.614743         0.015282        -1.511236
 C        -2.464692        -1.120621        -2.435088
 C        -2.012120        -1.232947        -0.917085
 C        -0.521523        -1.299621        -0.677910
 C        -0.053362         0.043520         0.009788
 O         1.018784         0.068643         0.610358
 C        -0.908391         1.254759        -0.107026
 C        -1.589543         1.150906        -1.530007
 H        -3.959708         0.306032        -0.014588
 H        -3.409103        -1.641671        -2.698459
 H        -1.693166        -0.762621        -3.186657
 H        -2.543452        -1.896291        -0.234858
 H         0.067011        -2.180532        -0.300162
 H        -0.135954        -1.157171        -1.715738
 H        -1.646391         1.285015         0.689594
 H        -0.339930         2.123428        -0.027747
 H        -2.028768         2.071578        -1.784109
 H        -0.670128         0.950471        -2.266434
