19
Iteration:  1053
 O        -3.912387         0.441867        -1.231983
 C        -2.683406         0.043796        -1.446567
 C        -2.355798        -1.040552        -2.433046
 C        -2.035109        -1.364276        -0.994929
 C        -0.649747        -1.356975        -0.430697
 C        -0.066129         0.049055         0.107279
 O         1.141551         0.012744         0.469536
 C        -0.844949         1.301612        -0.136759
 C        -1.642581         1.120450        -1.448358
 H        -4.308819         0.574405        -0.243389
 H        -3.246468        -1.422371        -2.873752
 H        -1.657538        -0.942880        -3.271639
 H        -2.728718        -1.973822        -0.366636
 H        -0.269102        -2.109276         0.258184
 H         0.035625        -1.729468        -1.256960
 H        -1.640404         1.591552         0.613686
 H         0.021466         2.020203        -0.062032
 H        -2.238717         2.019661        -1.771559
 H        -0.866297         0.946966        -2.209822
