19
Iteration:  2225
 O        -4.048152         0.324381        -1.407429
 C        -2.665781         0.041255        -1.461269
 C        -1.977640        -1.011831        -2.309973
 C        -2.084834        -1.225902        -0.879542
 C        -0.824306        -1.299711         0.015227
 C         0.019938        -0.067394        -0.036469
 O         1.224870        -0.034743        -0.044108
 C        -0.827875         1.219306        -0.019245
 C        -1.852412         1.290123        -1.207649
 H        -4.220918         0.352281        -2.335337
 H        -2.577144        -1.675047        -2.853931
 H        -1.058181        -0.812734        -2.927424
 H        -2.826748        -1.994239        -0.954962
 H        -0.834474        -1.536817         1.081195
 H        -0.225176        -2.135289        -0.373759
 H        -1.189702         1.295879         0.948703
 H        -0.119094         2.040206        -0.088187
 H        -2.449356         2.108195        -1.142063
 H        -1.337952         1.654569        -2.135662
