19
Iteration:  4273charge 0 multiplicity 1
 O        -4.008395         0.251038        -1.645765
 C        -2.610190         0.000321        -1.386171
 C        -1.907442        -0.922819        -2.330368
 C        -2.059105        -1.284226        -0.761894
 C        -0.779634        -1.317604         0.044531
 C        -0.022780        -0.007187        -0.033408
 O         1.202315        -0.027934        -0.434184
 C        -0.939213         1.156450         0.209424
 C        -1.862869         1.306823        -1.115125
 H        -4.231514         0.658018        -0.745053
 H        -2.581344        -1.227841        -3.047283
 H        -0.947303        -0.499284        -2.745890
 H        -2.767633        -2.014829        -0.441569
 H        -1.163471        -1.041899         1.021672
 H        -0.111446        -2.239196         0.078734
 H        -1.544108         0.951924         1.063131
 H        -0.232759         2.044850         0.409997
 H        -2.708325         2.045652        -0.817614
 H        -1.201373         1.843600        -1.849317
