19
Iteration:  1039charge 0 multiplicity 1
 O        -4.022939         0.395620        -1.246833
 C        -2.558803        -0.013747        -1.402362
 C        -2.452489        -1.047646        -2.490238
 C        -2.127607        -1.291395        -0.903395
 C        -0.613751        -1.257855        -0.506745
 C         0.011658        -0.016846         0.088306
 O         1.110061         0.030832         0.526524
 C        -0.818685         1.288707        -0.120812
 C        -1.527624         1.120017        -1.484848
 H        -4.062182         0.443042        -0.351325
 H        -3.389891        -1.592626        -2.830903
 H        -1.578463        -0.914629        -3.030362
 H        -2.833778        -2.010815        -0.515662
 H        -0.470404        -2.118489         0.190114
 H         0.053075        -1.399758        -1.427048
 H        -1.552407         1.389483         0.729556
 H        -0.218543         2.244270        -0.145534
 H        -2.036782         2.062054        -1.681778
 H        -0.823937         0.984276        -2.348762
