19
Iteration:  2286
 O        -3.947155         0.391933        -1.608565
 C        -2.562022         0.105960        -1.517895
 C        -2.030579        -1.204427        -2.257837
 C        -2.150857        -1.196807        -0.805482
 C        -0.745669        -1.346590        -0.081980
 C        -0.025124         0.007815         0.027284
 O         1.181972        -0.047151        -0.288185
 C        -0.909733         1.260217         0.237051
 C        -1.783028         1.312052        -1.100770
 H        -4.483422        -0.454629        -1.778495
 H        -2.747074        -1.692458        -2.967236
 H        -1.046159        -1.000482        -2.575942
 H        -2.964658        -1.713955        -0.247240
 H        -0.867399        -1.567439         1.002644
 H        -0.036758        -1.974680        -0.607925
 H        -1.682701         1.090799         1.158507
 H        -0.355400         2.195135         0.333210
 H        -2.578390         2.132856        -0.930626
 H        -1.069284         1.497425        -1.859300
