19
Iteration:   638
 O        -4.004217         0.445030        -1.165748
 C        -2.678441        -0.001048        -1.445190
 C        -2.488445        -1.151569        -2.386024
 C        -2.017969        -1.331930        -0.933210
 C        -0.532670        -1.141079        -0.758585
 C         0.061260         0.019796         0.086827
 O         1.044909        -0.097318         0.836286
 C        -0.769112         1.376313        -0.303707
 C        -1.668259         1.045489        -1.507364
 H        -4.032760         1.091761        -0.312956
 H        -3.383331        -1.647590        -2.739108
 H        -1.793100        -1.107614        -3.196331
 H        -2.512857        -1.960486        -0.141346
 H        -0.205090        -2.054779        -0.271145
 H         0.001494        -1.035009        -1.721552
 H        -1.131237         1.728301         0.650911
 H         0.017815         2.095045        -0.558004
 H        -2.153931         1.934106        -1.989766
 H        -0.907848         0.879023        -2.246385
