19
Iteration:   149
 O        -4.015659         0.341427        -1.696211
 C        -2.678993         0.019844        -1.516344
 C        -2.092978        -1.097037        -2.275332
 C        -2.160071        -1.287894        -0.698063
 C        -0.798746        -1.284742         0.059954
 C         0.086687        -0.059245        -0.180822
 O         1.312382        -0.009205        -0.028379
 C        -0.734276         1.201966        -0.129141
 C        -1.937065         1.342192        -1.054088
 H        -4.191296         1.253758        -1.127658
 H        -2.599486        -1.890002        -2.801581
 H        -1.070220        -0.937358        -2.556733
 H        -2.957301        -1.924842        -0.401586
 H        -0.926689        -1.248475         1.152096
 H        -0.278439        -2.224397        -0.104034
 H        -1.148955         1.182332         0.888059
 H         0.013619         2.022156        -0.246451
 H        -2.713718         1.873505        -0.472397
 H        -1.649370         1.834233        -2.029063
