19
Iteration:  1754charge 0 multiplicity 1
 O        -3.976178         0.293348        -1.357652
 C        -2.579873         0.111701        -1.502895
 C        -2.243336        -1.087849        -2.501937
 C        -2.104241        -1.209173        -0.885640
 C        -0.737649        -1.325114        -0.084609
 C         0.024939        -0.036657         0.085711
 O         1.285213         0.011064         0.048996
 C        -0.932406         1.237985         0.031277
 C        -1.714607         1.264651        -1.262210
 H        -4.387894         0.627925        -2.256053
 H        -3.227892        -1.584939        -2.687059
 H        -1.368553        -1.118383        -3.122020
 H        -2.854493        -1.926312        -0.546631
 H        -0.982162        -1.697046         0.907902
 H        -0.148920        -2.125457        -0.531596
 H        -1.643170         1.152606         0.932306
 H        -0.193224         2.016197         0.218382
 H        -2.275476         2.258308        -1.244186
 H        -0.972337         1.344042        -2.082468
