19
Iteration:  1872charge 0 multiplicity 1
 O        -4.021758         0.292570        -1.277911
 C        -2.655837         0.019503        -1.372544
 C        -2.128389        -0.905731        -2.453664
 C        -2.127266        -1.261161        -0.955664
 C        -0.763905        -1.310092        -0.160548
 C         0.051131        -0.031030        -0.057010
 O         1.240058        -0.091123         0.342465
 C        -0.723068         1.237228        -0.232233
 C        -1.829263         1.276085        -1.296496
 H        -4.530075        -0.062756        -2.134943
 H        -3.021900        -1.340642        -3.009798
 H        -1.203163        -0.587486        -2.874771
 H        -2.933482        -1.911018        -0.568315
 H        -0.847343        -1.642132         0.929539
 H        -0.107341        -2.028655        -0.710230
 H        -1.233117         1.460558         0.750521
 H        -0.037377         2.136858        -0.384792
 H        -2.624380         2.159237        -1.185740
 H        -1.393328         1.572072        -2.286936
