19
Iteration:  1439
 O        -4.010374         0.208028        -1.584259
 C        -2.599616         0.055904        -1.452570
 C        -1.839344        -0.874157        -2.384305
 C        -2.070150        -1.301155        -0.935776
 C        -0.984184        -1.240615         0.108132
 C        -0.021698        -0.033241        -0.058854
 O         1.210078        -0.202087        -0.190115
 C        -0.675803         1.236051        -0.018308
 C        -1.981572         1.357509        -1.011001
 H        -4.355349         0.642871        -0.729479
 H        -2.515663        -1.417351        -3.106667
 H        -0.822053        -0.652157        -2.610617
 H        -2.876396        -2.061724        -0.746021
 H        -1.459113        -1.128460         1.086019
 H        -0.271305        -2.053943         0.306151
 H        -1.018477         1.554026         0.949428
 H         0.117773         1.938278        -0.220552
 H        -2.711730         1.940698        -0.454779
 H        -1.774399         2.005947        -1.872987
