19
Iteration:  3355charge 0 multiplicity 1
 O        -3.996481         0.263293        -1.450245
 C        -2.651901         0.041114        -1.413226
 C        -2.026911        -0.924281        -2.300620
 C        -2.123231        -1.235992        -0.801260
 C        -0.762887        -1.361207        -0.230386
 C         0.022991        -0.034279        -0.182528
 O         1.194987         0.038431         0.098626
 C        -0.849106         1.192273        -0.024158
 C        -1.821323         1.259418        -1.215702
 H        -4.088445         0.544057        -0.478569
 H        -2.691289        -1.428501        -3.006843
 H        -1.112128        -0.646568        -2.848619
 H        -2.719545        -2.088548        -0.529532
 H        -0.934552        -1.642100         0.807282
 H        -0.255365        -2.197529        -0.743579
 H        -1.471084         1.062149         0.825581
 H        -0.175098         2.051493         0.176588
 H        -2.532172         2.153764        -1.197763
 H        -1.211377         1.401793        -2.167073
