19
Iteration:  2634charge 0 multiplicity 1
 O        -3.976882         0.440352        -1.328216
 C        -2.538894         0.010691        -1.502465
 C        -2.308636        -1.145889        -2.476413
 C        -2.087667        -1.341983        -0.932642
 C        -0.688229        -1.364947        -0.263097
 C         0.025206         0.036330         0.020988
 O         1.222116         0.048602         0.194647
 C        -0.898104         1.270395         0.053358
 C        -1.707864         1.293493        -1.284126
 H        -4.572888        -0.239171        -1.629824
 H        -3.344851        -1.590491        -2.665947
 H        -1.582583        -1.111198        -3.216024
 H        -2.908163        -1.890088        -0.430244
 H        -0.607601        -1.807020         0.757963
 H         0.109867        -1.954788        -0.730337
 H        -1.625717         1.207234         0.915069
 H        -0.226862         2.094131         0.135695
 H        -2.393830         2.124769        -1.216302
 H        -0.877643         1.537149        -1.963710
