19
Iteration:  3141charge 0 multiplicity 1
 O        -4.010361         0.023682        -1.775913
 C        -2.548310         0.086900        -1.327179
 C        -1.824215        -0.827037        -2.282474
 C        -2.174265        -1.256141        -0.794950
 C        -0.956942        -1.288436         0.135223
 C        -0.002595        -0.070697        -0.251664
 O         1.205410        -0.131238        -0.307200
 C        -0.712305         1.248252         0.052199
 C        -1.971887         1.462431        -0.865081
 H        -4.582744         0.615570        -1.200202
 H        -2.431508        -1.293657        -3.202741
 H        -0.792915        -0.850255        -2.527383
 H        -3.002210        -1.856719        -0.422293
 H        -1.102058        -1.227368         1.208622
 H        -0.433563        -2.206788        -0.127134
 H        -0.807749         1.373869         1.111189
 H        -0.011556         2.009464        -0.275975
 H        -2.700037         2.197412        -0.307489
 H        -1.532221         1.961541        -1.745295
