19
Iteration:  2541charge 0 multiplicity 1
 O        -4.009063         0.167578        -1.267131
 C        -2.537532         0.088785        -1.518159
 C        -2.266117        -1.095255        -2.491145
 C        -2.104931        -1.302697        -0.976740
 C        -0.754026        -1.418261        -0.160767
 C        -0.033846        -0.020319         0.081245
 O         1.206168         0.083038         0.128609
 C        -0.812679         1.315017         0.007671
 C        -1.639701         1.346350        -1.325924
 H        -4.225243         1.157330        -1.366780
 H        -3.187004        -1.511840        -2.969943
 H        -1.370304        -0.755968        -3.102988
 H        -3.008374        -1.744931        -0.474474
 H        -1.208759        -1.627565         0.809381
 H        -0.095538        -2.301272        -0.216823
 H        -1.538678         1.299338         0.842633
 H        -0.022975         2.159261         0.080714
 H        -2.230971         2.285717        -1.376366
 H        -1.038078         1.340355        -2.197309
