19
Iteration:  3566charge 0 multiplicity 1
 O        -3.970480         0.311297        -1.161818
 C        -2.610519         0.006562        -1.450997
 C        -2.423085        -1.104011        -2.457016
 C        -1.979051        -1.332405        -1.045083
 C        -0.569929        -1.367463        -0.507508
 C         0.064340         0.063365        -0.067776
 O         1.070684         0.028123         0.544944
 C        -0.824640         1.341148        -0.079992
 C        -1.750771         1.295679        -1.401372
 H        -4.040909         0.911752        -0.330583
 H        -3.280060        -1.751099        -2.730630
 H        -1.666623        -1.064711        -3.258922
 H        -2.640345        -1.866827        -0.360963
 H        -0.423512        -1.950987         0.392100
 H         0.092933        -1.878525        -1.200806
 H        -1.527459         1.170782         0.755180
 H        -0.294583         2.264637         0.012085
 H        -2.288075         2.103711        -1.774491
 H        -0.976627         1.080117        -2.296640
