19
Iteration:  1542charge 0 multiplicity 1
 O        -4.017478         0.170919        -1.639001
 C        -2.614057         0.087501        -1.400801
 C        -2.058568        -0.900076        -2.439620
 C        -2.140885        -1.310009        -0.892757
 C        -0.912217        -1.347430         0.020161
 C         0.077201        -0.100641        -0.005029
 O         1.306409        -0.154716        -0.011987
 C        -0.673281         1.395462        -0.052865
 C        -1.941366         1.406332        -1.043544
 H        -4.352931         0.714520        -0.824283
 H        -2.788986        -1.512820        -3.071452
 H        -1.088958        -0.781490        -2.874390
 H        -2.937164        -2.049661        -0.686276
 H        -1.080936        -1.491012         1.075890
 H        -0.221850        -2.145778        -0.288275
 H        -0.993084         1.438830         0.977297
 H         0.035739         2.168508        -0.427175
 H        -2.809637         1.857764        -0.565624
 H        -1.783208         2.038914        -1.937688
