19
Iteration:  4170
 O        -4.093750         0.266218        -1.381511
 C        -2.657216         0.070460        -1.384107
 C        -2.225291        -1.057006        -2.474185
 C        -2.071462        -1.285764        -1.001857
 C        -0.761502        -1.356225        -0.234182
 C         0.154931        -0.018047        -0.016772
 O         1.310801         0.106921         0.259803
 C        -0.756952         1.208136        -0.128754
 C        -1.876210         1.286425        -1.198184
 H        -4.297810         0.301588        -0.462147
 H        -3.159761        -1.284629        -2.920169
 H        -1.476123        -0.767995        -3.263705
 H        -2.678815        -2.085524        -0.560567
 H        -0.804097        -1.795712         0.811419
 H        -0.034142        -2.003708        -0.687014
 H        -1.411664         1.152692         0.779749
 H        -0.134593         2.046846        -0.021688
 H        -2.506102         2.129450        -1.111389
 H        -1.204734         1.444751        -2.157201
