19
Iteration:  4184charge 0 multiplicity 1
 O        -4.070755         0.259234        -1.393934
 C        -2.703195         0.022500        -1.426247
 C        -2.186319        -0.956094        -2.395516
 C        -2.061124        -1.240966        -0.926102
 C        -0.670661        -1.331500        -0.250730
 C         0.097390        -0.048991        -0.039226
 O         1.286790         0.072779         0.183563
 C        -0.836817         1.144864        -0.068353
 C        -1.813861         1.336598        -1.247970
 H        -4.531298         0.087850        -0.526559
 H        -2.826838        -1.773241        -2.917797
 H        -1.213675        -0.760239        -2.799188
 H        -2.891436        -1.885460        -0.599642
 H        -1.051474        -1.606430         0.712882
 H        -0.129883        -2.229080        -0.642643
 H        -1.252280         1.146424         0.912673
 H        -0.166380         2.055184        -0.105562
 H        -2.460266         2.153043        -0.946492
 H        -1.395976         1.667909        -2.272733
