19
Iteration:  1544charge 0 multiplicity 1
 O        -4.020242         0.166183        -1.629837
 C        -2.617704         0.094031        -1.409940
 C        -2.067828        -0.902094        -2.442391
 C        -2.122442        -1.306560        -0.880557
 C        -0.933119        -1.338209         0.011701
 C         0.087757        -0.096448        -0.010109
 O         1.303824        -0.161057        -0.010822
 C        -0.680943         1.394710        -0.041192
 C        -1.924714         1.401501        -1.041622
 H        -4.365768         0.654794        -0.938383
 H        -2.758837        -1.505656        -3.084678
 H        -1.135315        -0.807610        -2.928345
 H        -2.904967        -2.082601        -0.705379
 H        -1.080413        -1.459519         1.108784
 H        -0.200800        -2.085317        -0.309201
 H        -1.042569         1.476774         0.937240
 H         0.040617         2.127615        -0.458524
 H        -2.816553         1.864727        -0.500041
 H        -1.721292         2.042207        -1.911495
