19
Iteration:   254charge 0 multiplicity 1
 O        -3.970316         0.367175        -1.565034
 C        -2.609140        -0.027525        -1.367544
 C        -1.919407        -0.964609        -2.279729
 C        -2.028245        -1.332452        -0.874865
 C        -0.912325        -1.273263         0.231160
 C        -0.058934        -0.004105        -0.017196
 O         1.128198        -0.131935        -0.271009
 C        -0.782716         1.283729        -0.124483
 C        -1.847711         1.326501        -1.139443
 H        -4.562530        -0.014632        -0.943336
 H        -2.558608        -1.514592        -3.013380
 H        -0.837972        -0.716446        -2.629195
 H        -2.673065        -2.212126        -0.676398
 H        -1.379368        -1.255529         1.229084
 H        -0.314581        -2.222166         0.092043
 H        -1.167251         1.468351         0.907419
 H        -0.011510         2.050611        -0.336913
 H        -2.439264         2.340007        -1.138720
 H        -1.244222         1.493085        -2.063066
