19
Iteration:   117charge 0 multiplicity 1
 O        -3.952994         0.158207        -1.699193
 C        -2.617098         0.015799        -1.407083
 C        -2.203010        -1.078583        -2.298468
 C        -2.149341        -1.215693        -0.775900
 C        -0.845262        -1.223940        -0.066857
 C         0.099738        -0.009902        -0.040742
 O         1.287585        -0.175300        -0.034742
 C        -0.689222         1.406656        -0.054379
 C        -1.898872         1.375356        -1.066829
 H        -4.347329         0.596898        -1.047659
 H        -2.908362        -1.771876        -2.755525
 H        -1.283577        -1.099774        -2.822867
 H        -2.912854        -1.851573        -0.408359
 H        -1.103992        -1.177106         1.026873
 H        -0.339067        -2.157823        -0.270531
 H        -0.990959         1.821442         0.948467
 H         0.104527         2.126803        -0.397603
 H        -2.855402         2.009992        -0.710576
 H        -1.633376         1.809876        -2.109150
