19
Iteration:  4795charge 0 multiplicity 1
 O        -3.959113         0.193827        -0.956965
 C        -2.611663         0.055396        -1.288666
 C        -2.256279        -0.750540        -2.587722
 C        -1.976187        -1.257905        -1.212782
 C        -0.579412        -1.385107        -0.593505
 C        -0.014901        -0.045199        -0.051574
 O         0.724582        -0.069995         0.944300
 C        -0.424343         1.258375        -0.860296
 C        -1.878874         1.319515        -1.066032
 H        -4.257470        -0.511242        -0.260642
 H        -2.997711        -1.211534        -3.211809
 H        -1.228556        -0.470056        -3.177788
 H        -2.742625        -1.913047        -0.816248
 H        -0.471996        -2.294989         0.123575
 H         0.154227        -1.632495        -1.403787
 H         0.008439         2.070220        -0.314489
 H         0.037620         1.173962        -1.823585
 H        -2.253143         1.597526        -0.016644
 H        -2.175083         2.157166        -1.727720
