19
Iteration:  4069
 O        -3.918512         0.411091        -1.139202
 C        -2.650645        -0.002683        -1.468363
 C        -2.549623        -1.173494        -2.495202
 C        -1.993084        -1.351442        -1.045594
 C        -0.506708        -1.264467        -0.559887
 C         0.017632         0.101672         0.063484
 O         1.112307         0.055856         0.539615
 C        -0.874325         1.275353        -0.034108
 C        -1.672528         1.176011        -1.487804
 H        -4.136864         0.168939        -0.239929
 H        -3.463548        -1.749946        -2.861291
 H        -1.846923        -0.863487        -3.223880
 H        -2.450376        -2.073270        -0.373136
 H        -0.296870        -2.141469         0.155954
 H         0.167870        -1.594929        -1.331367
 H        -1.639555         1.254419         0.797264
 H        -0.270096         2.171981         0.073314
 H        -2.133645         2.223780        -1.624364
 H        -0.844723         1.289753        -2.229373
