19
Iteration:   531
 O        -3.953556         0.491514        -1.138500
 C        -2.663517         0.049847        -1.370912
 C        -2.299454        -1.012724        -2.411268
 C        -2.074626        -1.324499        -0.935114
 C        -0.657718        -1.416406        -0.377414
 C        -0.063083        -0.028183         0.055283
 O         1.119233         0.081165         0.375640
 C        -0.869347         1.273226        -0.158359
 C        -1.586700         1.149407        -1.472269
 H        -4.669226        -0.129324        -1.660734
 H        -3.005166        -1.605894        -2.979463
 H        -1.342751        -0.709022        -2.943351
 H        -2.797343        -2.113433        -0.507221
 H        -0.307912        -2.086786         0.426549
 H        -0.088275        -1.749151        -1.277033
 H        -1.530077         1.476407         0.739945
 H        -0.043857         1.999862        -0.209050
 H        -1.992585         2.052293        -1.958024
 H        -0.868000         0.709955        -2.155793
