19
Iteration:   956
 O        -3.889564         0.378418        -1.033883
 C        -2.635173         0.041160        -1.445472
 C        -2.555207        -1.106121        -2.362880
 C        -1.985847        -1.263047        -1.017605
 C        -0.488367        -1.231540        -0.819074
 C        -0.041557         0.013407         0.049949
 O         0.895722        -0.000406         0.871888
 C        -0.771372         1.339847        -0.279710
 C        -1.580840         1.052682        -1.574464
 H        -3.795446         0.700208        -0.116713
 H        -3.450493        -1.735486        -2.717085
 H        -1.871969        -1.040750        -3.224486
 H        -2.592631        -1.950363        -0.385101
 H        -0.217418        -2.195787        -0.331541
 H         0.137558        -1.319838        -1.747466
 H        -1.398165         1.836722         0.471188
 H        -0.029348         2.147343        -0.538460
 H        -1.865946         2.109176        -1.895997
 H        -0.889109         0.528151        -2.291219
