19
Iteration:  4088
 O        -3.992823         0.374312        -1.121438
 C        -2.581800         0.029961        -1.486670
 C        -2.403326        -1.076245        -2.499035
 C        -2.006516        -1.258930        -1.017364
 C        -0.569003        -1.356352        -0.516627
 C         0.041365        -0.007535        -0.015276
 O         1.113719         0.107082         0.518613
 C        -0.899540         1.206876        -0.139612
 C        -1.676434         1.226559        -1.386138
 H        -4.162394         0.224118        -0.235820
 H        -3.381891        -1.619946        -2.460109
 H        -1.668749        -1.195550        -3.244134
 H        -2.661658        -1.994482        -0.519280
 H        -0.328389        -1.937272         0.358036
 H         0.193758        -1.733984        -1.251124
 H        -1.600105         1.174531         0.733498
 H        -0.281692         2.176828        -0.010903
 H        -2.404039         2.104645        -1.578776
 H        -1.059499         1.217217        -2.200586
