19
Iteration:  4634
 O        -4.116971         0.139129        -1.224189
 C        -2.705928         0.092018        -1.291149
 C        -2.137451        -0.693236        -2.482308
 C        -1.998755        -1.227486        -1.081537
 C        -0.628710        -1.363647        -0.423437
 C         0.060544        -0.088234         0.001596
 O         1.017459        -0.010635         0.696091
 C        -0.526483         1.114248        -0.757881
 C        -1.956962         1.333310        -1.015585
 H        -4.537044        -0.334547        -0.459914
 H        -2.743641        -1.231146        -3.052935
 H        -1.224033        -0.342002        -2.961242
 H        -2.695883        -2.039031        -0.922119
 H        -0.636465        -1.932437         0.469350
 H         0.050645        -1.774626        -1.101645
 H        -0.121746         1.954859        -0.039915
 H         0.116239         1.090614        -1.688662
 H        -2.342763         1.704515        -0.058344
 H        -2.122540         2.123753        -1.904140
