19
Iteration:  3854charge 0 multiplicity 1
 O        -3.786157         0.259952        -0.667412
 C        -2.608419        -0.010645        -1.476971
 C        -2.634915        -1.094831        -2.402916
 C        -1.796369        -1.300686        -1.113594
 C        -0.326037        -1.149712        -0.971161
 C        -0.065634         0.161949        -0.016104
 O         0.500545        -0.138697         1.049899
 C        -0.713007         1.401860        -0.457701
 C        -1.557994         1.151113        -1.686144
 H        -3.364897         0.635394         0.185450
 H        -3.539843        -1.751461        -2.410471
 H        -2.149120        -1.169850        -3.384332
 H        -2.353928        -1.935851        -0.439584
 H         0.043747        -2.031870        -0.378101
 H         0.192370        -1.291925        -1.940400
 H        -1.409205         1.871412         0.291572
 H        -0.039859         2.267815        -0.698128
 H        -2.084460         1.963263        -2.039093
 H        -0.878396         0.872349        -2.559208
