19
Iteration:  2352
 O        -3.939275         0.356502        -1.336772
 C        -2.646281         0.014798        -1.456064
 C        -1.886091        -1.093292        -2.444055
 C        -2.082029        -1.180035        -0.927818
 C        -0.824296        -1.261839         0.081612
 C        -0.059623        -0.013967         0.066887
 O         1.135154        -0.100292        -0.231904
 C        -0.901346         1.276261         0.097552
 C        -1.725357         1.293184        -1.258392
 H        -4.315591        -0.492760        -1.414518
 H        -2.634307        -1.483633        -3.019693
 H        -0.986138        -0.699698        -2.957689
 H        -2.898123        -1.909275        -0.896830
 H        -1.357099        -1.535128         0.963334
 H        -0.160501        -2.021342        -0.277162
 H        -1.782543         1.143849         0.853788
 H        -0.417389         2.238231         0.254503
 H        -2.400649         2.162125        -1.023937
 H        -1.237824         1.361592        -2.102636
