19
Iteration:  2426charge 0 multiplicity 1
 O        -4.184974         0.375668        -1.529071
 C        -2.692477         0.008306        -1.472368
 C        -2.060425        -1.074104        -2.357684
 C        -2.050271        -1.227144        -0.836950
 C        -0.710007        -1.275746        -0.084809
 C         0.044009        -0.012156        -0.093308
 O         1.276674        -0.119707         0.147376
 C        -0.713202         1.265188        -0.051384
 C        -1.878482         1.358922        -1.201309
 H        -4.559826        -0.591186        -1.356224
 H        -2.563966        -1.735459        -2.967560
 H        -1.062967        -0.747795        -2.707517
 H        -2.811979        -1.943028        -0.600843
 H        -0.754772        -1.705932         0.973897
 H        -0.145301        -1.917513        -0.771674
 H        -1.194561         1.346720         0.934961
 H        -0.087263         2.123713        -0.113731
 H        -2.736788         1.944934        -0.719718
 H        -1.383700         1.896246        -2.191653
