19
Iteration:   390charge 0 multiplicity 1
 O        -3.899011         0.203431        -1.225086
 C        -2.525384         0.087881        -1.619873
 C        -2.181007        -1.069440        -2.441122
 C        -2.073557        -1.142657        -0.815112
 C        -0.818617        -1.325738         0.095443
 C        -0.018841        -0.037470        -0.013106
 O         1.193491        -0.076657        -0.066360
 C        -0.917332         1.229270        -0.018229
 C        -1.689933         1.359455        -1.385480
 H        -4.344117         0.463571        -2.043788
 H        -2.926765        -1.562784        -3.102879
 H        -1.227360        -1.117351        -2.971344
 H        -3.065765        -1.516955        -0.421954
 H        -1.214476        -1.095586         1.135017
 H        -0.434895        -2.343550         0.125655
 H        -1.735307         1.071929         0.644535
 H        -0.341193         2.087271         0.249741
 H        -2.311592         2.220567        -1.230719
 H        -0.966416         1.822680        -2.149207
