19
Iteration:  3200charge 0 multiplicity 1
 O        -3.943512         0.265179        -1.707574
 C        -2.604053         0.015049        -1.362609
 C        -1.861530        -0.888783        -2.325610
 C        -2.076205        -1.329323        -0.813767
 C        -1.027921        -1.242126         0.144949
 C         0.001554        -0.085124        -0.092956
 O         1.173547        -0.023080        -0.425451
 C        -0.760277         1.210025         0.056223
 C        -1.875539         1.315881        -0.924375
 H        -4.452687         0.010668        -0.876002
 H        -2.366421        -1.502549        -2.942561
 H        -0.808431        -0.566649        -2.529837
 H        -2.656699        -2.235575        -0.546194
 H        -1.401261        -1.093077         1.161509
 H        -0.544806        -2.229361         0.193822
 H        -1.158479         1.264201         1.039525
 H        -0.094912         2.058514        -0.128529
 H        -2.658305         1.915112        -0.453694
 H        -1.649569         1.837447        -1.802540
