19
Iteration:  2936
 O        -4.094334         0.157062        -1.571500
 C        -2.677912         0.110063        -1.446682
 C        -1.982381        -0.904379        -2.353318
 C        -2.167044        -1.213089        -0.843251
 C        -0.804544        -1.304248        -0.023060
 C         0.041248        -0.012582        -0.081342
 O         1.279746        -0.120371        -0.091927
 C        -0.810494         1.279709         0.019561
 C        -1.799065         1.305810        -1.086471
 H        -4.330907         0.127732        -0.608672
 H        -2.532379        -1.463676        -2.973480
 H        -1.064417        -0.466860        -2.846211
 H        -2.755197        -2.112127        -0.738407
 H        -1.079902        -1.599167         1.046456
 H        -0.225111        -2.149835        -0.450850
 H        -1.346191         1.128593         1.040196
 H        -0.210700         2.177877         0.063577
 H        -2.405820         2.207538        -0.964677
 H        -1.177646         1.703284        -1.991164
