19
Iteration:  1197charge 0 multiplicity 1
 O        -3.999527         0.177723        -1.556315
 C        -2.620096         0.143703        -1.560004
 C        -2.156357        -0.962903        -2.306378
 C        -2.044309        -1.158560        -0.824789
 C        -0.749824        -1.362220        -0.077682
 C         0.031551        -0.049649        -0.019361
 O         1.214176        -0.093228        -0.020558
 C        -0.881844         1.195648         0.053891
 C        -1.756961         1.364958        -1.229995
 H        -4.380876         0.744232        -0.732059
 H        -2.881033        -1.496925        -3.012111
 H        -1.231879        -0.857861        -2.806916
 H        -2.890859        -1.547750        -0.303159
 H        -1.000030        -1.581494         1.018203
 H        -0.182717        -2.341152        -0.355999
 H        -1.527242         0.959269         0.985794
 H        -0.305284         2.126958         0.296159
 H        -2.395489         2.252259        -1.040846
 H        -1.063318         1.613086        -2.061720
