19
Iteration:  4799charge 0 multiplicity 1
 O        -3.983884         0.174375        -0.977596
 C        -2.611808         0.084053        -1.279035
 C        -2.247758        -0.725937        -2.592642
 C        -1.954723        -1.274547        -1.183787
 C        -0.568933        -1.417356        -0.592302
 C        -0.013128        -0.035136        -0.094440
 O         0.732153        -0.082604         0.957849
 C        -0.421871         1.243721        -0.844340
 C        -1.877539         1.343713        -1.054882
 H        -4.255294        -0.393804        -0.270197
 H        -3.020324        -1.178307        -3.229460
 H        -1.382651        -0.519205        -3.026147
 H        -2.751506        -1.930800        -0.748795
 H        -0.435072        -2.210962         0.122462
 H         0.172607        -1.617379        -1.478793
 H        -0.104059         2.199828        -0.247664
 H        -0.077805         1.113973        -1.895704
 H        -2.236226         1.706489        -0.126377
 H        -2.109897         2.018870        -1.844186
