19
Iteration:  2674
 O        -4.048694         0.381979        -1.243268
 C        -2.670490         0.077651        -1.540528
 C        -2.111845        -0.985774        -2.396723
 C        -2.087687        -1.262818        -0.858767
 C        -0.655156        -1.409460        -0.221582
 C         0.010038        -0.043207        -0.010248
 O         1.182989         0.012376         0.272060
 C        -0.852135         1.196521        -0.129152
 C        -1.730000         1.289896        -1.378258
 H        -4.486915        -0.500135        -1.013325
 H        -2.898997        -1.356051        -3.118852
 H        -1.294799        -0.653380        -3.108158
 H        -2.857075        -1.936435        -0.466981
 H        -0.684783        -1.869289         0.754845
 H        -0.073821        -2.067158        -0.919758
 H        -1.509353         1.244348         0.758658
 H        -0.205508         2.098604        -0.094241
 H        -2.281927         2.213266        -1.298421
 H        -1.250092         1.450523        -2.316978
