19
Iteration:  4327charge 0 multiplicity 1
 O        -3.872655         0.150043        -1.758435
 C        -2.550540         0.096861        -1.412278
 C        -1.909656        -0.937123        -2.307254
 C        -2.139092        -1.264160        -0.771786
 C        -0.820445        -1.344703         0.151963
 C        -0.034009        -0.022346        -0.068794
 O         1.041326        -0.028073        -0.539383
 C        -0.828718         1.237260         0.143939
 C        -1.898141         1.341624        -0.829964
 H        -4.278248         0.231898        -0.850092
 H        -2.488481        -1.372016        -3.055029
 H        -0.825612        -0.866573        -2.639606
 H        -2.999694        -1.873173        -0.549797
 H        -1.082815        -1.341172         1.291101
 H        -0.100542        -2.147803        -0.239551
 H        -1.221091         1.203047         1.160927
 H        -0.085162         2.110297         0.200200
 H        -2.654283         2.092597        -0.637159
 H        -1.360085         1.996099        -1.618539
