19
Iteration:   291
 O        -3.982732         0.113140        -1.699714
 C        -2.567628         0.174493        -1.445648
 C        -2.012170        -1.102553        -2.176995
 C        -2.234370        -1.081543        -0.688103
 C        -0.893169        -1.292478         0.025280
 C         0.032587        -0.076260        -0.110782
 O         1.259534        -0.099688        -0.205600
 C        -0.785078         1.221695        -0.027611
 C        -1.810460         1.487757        -1.121803
 H        -4.433136        -0.015085        -0.790681
 H        -2.658196        -1.557521        -2.949855
 H        -1.006465        -1.223557        -2.515077
 H        -3.043558        -1.715916        -0.349688
 H        -1.137007        -1.519058         1.085092
 H        -0.284454        -2.153920        -0.307876
 H        -1.332481         1.059459         0.883887
 H        -0.078189         2.059409         0.113745
 H        -2.524983         2.268511        -0.898695
 H        -1.245220         1.887838        -2.058785
