19
Iteration:  1468
 O        -3.982799         0.091688        -1.687130
 C        -2.637991         0.111119        -1.415055
 C        -1.981310        -0.841612        -2.394278
 C        -2.091840        -1.231125        -0.854812
 C        -0.927694        -1.267659         0.062930
 C         0.051409        -0.050043        -0.057428
 O         1.248196        -0.235731        -0.106711
 C        -0.630253         1.281810        -0.012292
 C        -1.994482         1.418186        -1.015392
 H        -4.508256         0.308802        -0.774134
 H        -2.817160        -1.381358        -2.910717
 H        -1.067292        -0.650532        -2.900361
 H        -2.885030        -2.000559        -0.799939
 H        -1.373645        -1.230753         1.144729
 H        -0.288344        -2.178714         0.055675
 H        -1.077243         1.537708         1.018424
 H         0.267322         1.953132        -0.251591
 H        -2.749409         2.150275        -0.547088
 H        -1.756260         2.014884        -1.916185
