19
Iteration:  4940charge 0 multiplicity 1
 O        -4.052467         0.005732        -1.117318
 C        -2.718654         0.138301        -1.340555
 C        -2.100771        -0.541646        -2.563902
 C        -1.984781        -1.205659        -1.153060
 C        -0.725165        -1.355532        -0.332171
 C        -0.002820        -0.078540         0.011207
 O         1.039354        -0.132905         0.681228
 C        -0.452269         1.133380        -0.889527
 C        -1.962273         1.361968        -0.823688
 H        -4.701177        -0.077503        -1.873412
 H        -2.712939        -1.152756        -3.148214
 H        -1.324897         0.056582        -2.942699
 H        -2.692346        -2.007995        -1.027293
 H        -0.932101        -1.888742         0.564573
 H         0.042307        -1.939979        -0.723513
 H        -0.023890         2.117475        -0.504169
 H        -0.170805         1.005130        -1.864179
 H        -2.376958         1.502066         0.262331
 H        -2.104479         2.264297        -1.430192
