19
Iteration:  1451
 O        -4.039228         0.141652        -1.639209
 C        -2.584151         0.052468        -1.422008
 C        -1.947651        -0.897783        -2.410582
 C        -2.039045        -1.234073        -0.940256
 C        -0.924981        -1.219662         0.169205
 C        -0.008083        -0.084782        -0.098593
 O         1.159402        -0.202144        -0.142824
 C        -0.704198         1.333009        -0.072182
 C        -1.841195         1.364715        -0.911968
 H        -4.388289         0.570405        -0.723508
 H        -2.452600        -1.472591        -3.210754
 H        -1.007157        -0.564765        -2.895789
 H        -2.895455        -1.899753        -0.706633
 H        -1.497985        -1.155380         1.058852
 H        -0.501724        -2.194505        -0.052769
 H        -0.940752         1.241688         0.947555
 H        -0.037527         2.135792        -0.337211
 H        -2.620512         1.840984        -0.370460
 H        -1.548723         1.967200        -1.777207
