19
Iteration:   786
 O        -3.739800         0.446012        -0.753957
 C        -2.559000         0.051108        -1.444131
 C        -2.473632        -1.202625        -2.326526
 C        -1.874023        -1.261610        -0.990957
 C        -0.365292        -1.217179        -0.907379
 C        -0.087005        -0.020708        -0.101673
 O         0.432921        -0.148301         0.987372
 C        -0.706281         1.372738        -0.504148
 C        -1.600101         1.227339        -1.693732
 H        -3.554034         0.547631         0.148161
 H        -3.407226        -1.847528        -2.480526
 H        -1.963307        -1.317903        -3.274894
 H        -2.418859        -1.919125        -0.252277
 H         0.146539        -1.966844        -0.200533
 H         0.008165        -1.359974        -1.942325
 H        -1.360951         1.812493         0.314386
 H         0.049613         2.173253        -0.750957
 H        -2.127007         2.138808        -1.856244
 H        -1.060326         0.869713        -2.570236
