19
Iteration:  3810
 O        -3.803421         0.313615        -0.763099
 C        -2.642778         0.046084        -1.439331
 C        -2.543247        -1.148123        -2.367961
 C        -1.842171        -1.342477        -1.044653
 C        -0.319954        -1.179760        -0.983698
 C        -0.055737        -0.010874        -0.049988
 O         0.500417        -0.014894         1.087612
 C        -0.634157         1.299498        -0.497896
 C        -1.689509         1.244896        -1.653125
 H        -3.443436         0.523940         0.137376
 H        -3.302189        -1.868625        -2.492606
 H        -2.155917        -0.896035        -3.402364
 H        -2.151772        -2.249615        -0.526878
 H         0.164989        -2.120794        -0.547848
 H         0.065483        -0.998634        -1.992928
 H        -1.044736         1.789627         0.433309
 H         0.282504         1.939445        -0.791339
 H        -2.191636         2.212370        -1.597906
 H        -1.230780         1.257285        -2.718734
