19
Iteration:   484
 O        -3.961842         0.238785        -1.340324
 C        -2.521603         0.098349        -1.619946
 C        -2.393986        -1.205586        -2.346274
 C        -2.108539        -1.158744        -0.851228
 C        -0.695254        -1.291899        -0.314688
 C         0.127382        -0.014671        -0.103808
 O         1.259653        -0.063028         0.363576
 C        -0.887200         1.233460        -0.053199
 C        -1.774967         1.386644        -1.332776
 H        -4.396478         1.270510        -1.434628
 H        -3.403414        -1.556943        -2.645568
 H        -1.622699        -1.540989        -3.004605
 H        -2.894682        -1.498634        -0.164660
 H        -0.784076        -1.688189         0.746715
 H         0.040011        -2.032036        -0.750518
 H        -1.446025         0.831884         0.872654
 H        -0.289432         2.188280         0.143579
 H        -2.358413         2.394134        -1.268747
 H        -1.114093         1.524716        -2.196845
