19
Iteration:   521charge 0 multiplicity 1
 O        -3.987293         0.477730        -1.139691
 C        -2.653437         0.045917        -1.484932
 C        -2.309493        -1.067302        -2.372579
 C        -2.106119        -1.369167        -0.942624
 C        -0.625220        -1.352079        -0.335781
 C        -0.047264        -0.029234         0.041468
 O         1.116494         0.071996         0.354104
 C        -0.780708         1.231932        -0.137083
 C        -1.607726         1.219665        -1.426961
 H        -4.602231         0.101543        -1.972006
 H        -3.160385        -1.542634        -2.895669
 H        -1.440462        -1.066745        -3.077945
 H        -2.854923        -2.018615        -0.391801
 H        -0.455544        -2.138984         0.440137
 H         0.115221        -1.632367        -1.114631
 H        -1.543337         1.299721         0.666083
 H        -0.138839         2.091648        -0.007938
 H        -2.109883         2.162232        -1.684330
 H        -0.882453         1.083780        -2.263086
