19
Iteration:  3143charge 0 multiplicity 1
 O        -4.001102         0.026729        -1.770726
 C        -2.546427         0.090050        -1.310089
 C        -1.815014        -0.835320        -2.282138
 C        -2.175152        -1.229084        -0.797348
 C        -0.958694        -1.308324         0.131965
 C        -0.018563        -0.061842        -0.248318
 O         1.210248        -0.144373        -0.312952
 C        -0.709102         1.249417         0.062946
 C        -1.983328         1.463558        -0.886989
 H        -4.557600         0.568278        -1.280928
 H        -2.434508        -1.305113        -3.127274
 H        -0.791584        -0.787044        -2.524480
 H        -3.028599        -1.857421        -0.420317
 H        -1.086836        -1.237623         1.193082
 H        -0.349072        -2.164528        -0.150912
 H        -0.804066         1.382182         1.099874
 H        -0.066268         2.019601        -0.259050
 H        -2.676489         2.179205        -0.326431
 H        -1.637477         1.928576        -1.730437
