19
Iteration:  2992
 O        -3.979795         0.242945        -1.632484
 C        -2.632973         0.035562        -1.310740
 C        -1.980443        -0.981771        -2.355199
 C        -2.154530        -1.270359        -0.892841
 C        -0.843966        -1.351548        -0.093471
 C        -0.032908        -0.069723        -0.121675
 O         1.238464         0.054727        -0.038925
 C        -0.667667         1.207334        -0.096164
 C        -1.958885         1.337890        -0.948542
 H        -4.324663         0.667416        -0.904108
 H        -2.753292        -1.388009        -3.070808
 H        -1.062377        -0.820938        -2.817682
 H        -2.940867        -2.017908        -0.579457
 H        -1.112949        -1.380691         1.023599
 H        -0.216018        -2.283821        -0.160745
 H        -0.967547         1.311473         1.041927
 H         0.145072         1.830319        -0.363256
 H        -2.646704         1.970651        -0.424821
 H        -1.563581         1.739310        -1.992687
