19
Iteration:  1113
 O        -4.011799         0.277645        -1.278950
 C        -2.616376         0.070818        -1.495410
 C        -2.316671        -1.030431        -2.542766
 C        -2.099726        -1.192899        -0.898551
 C        -0.669985        -1.360311        -0.230973
 C         0.018355        -0.057470         0.052285
 O         1.229815        -0.014625         0.326303
 C        -0.893831         1.260760        -0.054634
 C        -1.629742         1.276363        -1.475037
 H        -4.187774         0.514434        -0.365712
 H        -3.285028        -1.492444        -2.945719
 H        -1.393632        -0.975003        -3.071411
 H        -2.885885        -1.730950        -0.392710
 H        -0.734611        -1.770776         0.782459
 H        -0.161223        -2.025092        -0.861073
 H        -1.636904         1.262246         0.727330
 H        -0.246135         2.099281         0.106520
 H        -2.151286         2.224538        -1.522431
 H        -0.870590         1.363231        -2.266367
