19
Iteration:   494
 O        -3.871507         0.273457        -1.272338
 C        -2.592386         0.091651        -1.577913
 C        -2.438837        -1.227967        -2.380056
 C        -2.107180        -1.143113        -0.885757
 C        -0.653814        -1.288899        -0.346926
 C         0.126323        -0.054192        -0.077954
 O         1.254998        -0.036672         0.393187
 C        -0.888202         1.248542        -0.067210
 C        -1.785209         1.337744        -1.340599
 H        -4.112595         1.119634        -1.982683
 H        -3.435719        -1.696685        -2.575316
 H        -1.645197        -1.360856        -3.066683
 H        -2.907740        -1.550222        -0.292334
 H        -0.931552        -1.672991         0.672181
 H        -0.098855        -2.076463        -0.912950
 H        -1.581670         1.156025         0.839726
 H        -0.365009         2.231596         0.159483
 H        -2.528629         2.248865        -1.334225
 H        -1.007803         1.523527        -2.109613
