19
Iteration:  3396
 O        -4.016598         0.207344        -1.310125
 C        -2.611291        -0.001193        -1.508819
 C        -2.288475        -0.974132        -2.551707
 C        -1.988438        -1.243538        -0.968490
 C        -0.759754        -1.329499        -0.189595
 C        -0.002301         0.001625         0.048701
 O         1.215089         0.022443         0.182574
 C        -0.786206         1.269249        -0.019680
 C        -1.749350         1.299342        -1.281114
 H        -4.168440         0.558294        -0.394249
 H        -3.131030        -1.665100        -2.748388
 H        -1.542038        -0.905568        -3.265673
 H        -2.713413        -2.009520        -0.756973
 H        -1.009251        -1.612436         0.824948
 H        -0.047478        -2.119533        -0.436114
 H        -1.288235         1.212042         1.018904
 H        -0.100416         2.149985        -0.138330
 H        -2.434465         2.233200        -1.131827
 H        -1.072436         1.499964        -2.083072
