19
Iteration:   986charge 0 multiplicity 1
 O        -3.865229         0.425447        -1.150395
 C        -2.568531         0.098911        -1.547211
 C        -2.510664        -1.199915        -2.295837
 C        -1.975508        -1.384292        -0.945750
 C        -0.504444        -1.253031        -0.653225
 C        -0.005213        -0.010737        -0.003036
 O         0.956920        -0.034234         0.738526
 C        -0.844705         1.227703        -0.223792
 C        -1.687994         1.277999        -1.540031
 H        -3.630883         1.014911        -0.495983
 H        -3.550069        -1.595758        -2.414309
 H        -1.877017        -1.197093        -3.101482
 H        -2.718501        -1.792679        -0.277953
 H        -0.022921        -2.145029        -0.280864
 H         0.096814        -1.283870        -1.587653
 H        -1.651664         1.266515         0.538519
 H        -0.193224         2.139178        -0.089506
 H        -2.137620         2.289765        -1.472230
 H        -1.184479         1.243363        -2.493383
