19
Iteration:  3989charge 0 multiplicity 1
 O        -3.900443         0.319328        -0.984114
 C        -2.625995        -0.043667        -1.461314
 C        -2.640561        -1.126897        -2.514107
 C        -1.970528        -1.323802        -1.094761
 C        -0.351540        -1.208312        -0.702562
 C         0.022572         0.008342         0.013296
 O         0.942845         0.003052         0.869208
 C        -0.768962         1.306114        -0.323134
 C        -1.750503         1.241982        -1.518591
 H        -3.853338         0.861015        -0.221991
 H        -3.448562        -1.764391        -2.558752
 H        -1.817104        -1.011567        -3.288263
 H        -2.408117        -1.876981        -0.236902
 H        -0.147239        -2.043605        -0.063789
 H         0.304983        -1.351084        -1.584882
 H        -1.367924         1.579332         0.592865
 H         0.047270         2.163718        -0.395974
 H        -2.413300         2.209972        -1.623517
 H        -1.121398         1.108169        -2.332882
