19
Iteration:  4843charge 0 multiplicity 1
 O        -4.097669         0.071182        -1.142501
 C        -2.635714         0.079139        -1.348148
 C        -2.299886        -0.711946        -2.550814
 C        -2.003975        -1.253749        -1.040425
 C        -0.477888        -1.355710        -0.636324
 C         0.046500        -0.082977        -0.057322
 O         0.802696        -0.059074         0.946038
 C        -0.357080         1.205107        -0.899038
 C        -1.923890         1.336601        -0.879989
 H        -4.203908         0.897450        -0.618953
 H        -3.211614        -1.032680        -3.056606
 H        -1.514601        -0.416127        -3.083826
 H        -2.713427        -1.979713        -0.598753
 H        -0.334295        -2.205525        -0.004168
 H         0.153099        -1.696961        -1.612894
 H         0.001784         2.125457        -0.218605
 H         0.173418         1.063308        -1.874104
 H        -2.325987         1.695905         0.036647
 H        -2.060544         2.026519        -1.641744
