19
Iteration:  4528charge 0 multiplicity 1
 O        -4.100605         0.063451        -1.556571
 C        -2.709200         0.085801        -1.317318
 C        -1.994714        -0.630441        -2.460052
 C        -2.017909        -1.268058        -0.997143
 C        -0.807303        -1.289284        -0.078330
 C        -0.000911        -0.090756        -0.145069
 O         1.213342        -0.099076         0.326637
 C        -0.548398         1.183613        -0.710262
 C        -2.056645         1.320526        -0.616129
 H        -4.480262         0.373099        -0.694507
 H        -2.451522        -1.097902        -3.289882
 H        -0.984080        -0.188584        -2.670504
 H        -2.461214        -2.263804        -0.925092
 H        -1.100198        -1.330177         1.061545
 H        -0.122481        -2.258419        -0.129973
 H        -0.077228         2.013987        -0.122113
 H        -0.182777         1.283636        -1.718530
 H        -2.467073         1.419878         0.430012
 H        -2.423749         2.152329        -1.171083
