19
Iteration:  3916
 O        -3.809269         0.349883        -0.840303
 C        -2.554455        -0.029951        -1.472842
 C        -2.641145        -1.251993        -2.475966
 C        -1.861327        -1.265750        -1.047361
 C        -0.322879        -1.200116        -0.839911
 C        -0.034778         0.028250         0.017183
 O         0.615911        -0.076463         0.975100
 C        -0.621154         1.386567        -0.476621
 C        -1.775379         1.336608        -1.590607
 H        -3.839484        -0.090090         0.090966
 H        -3.392600        -1.993740        -2.369570
 H        -2.016370        -1.061252        -3.351329
 H        -2.278587        -1.936609        -0.283020
 H         0.059631        -2.173775        -0.381440
 H         0.044714        -1.091160        -1.860629
 H        -1.003825         1.589881         0.523257
 H         0.156587         2.073749        -0.615368
 H        -2.326098         2.313529        -1.509826
 H        -1.156137         1.235533        -2.525212
