19
Iteration:  3185charge 0 multiplicity 1
 O        -3.989597         0.282172        -1.732813
 C        -2.639788         0.049717        -1.391159
 C        -1.768773        -0.932598        -2.228219
 C        -2.074767        -1.253370        -0.821528
 C        -0.812575        -1.356920         0.210498
 C        -0.057057        -0.078574        -0.110191
 O         1.147501        -0.109331        -0.408768
 C        -0.742146         1.266700         0.036010
 C        -2.019114         1.350642        -0.937894
 H        -4.591091         0.336980        -0.897915
 H        -2.314131        -1.474529        -3.120483
 H        -0.854977        -0.591081        -2.665407
 H        -2.925720        -1.960066        -0.941268
 H        -1.235847        -1.268923         1.224494
 H        -0.207998        -2.271170         0.162659
 H        -1.061927         1.295874         1.087123
 H         0.022259         2.009418        -0.137699
 H        -2.888068         2.017539        -0.495236
 H        -1.658624         1.868278        -1.866543
