19
Iteration:  1021
 O        -3.981033         0.333397        -1.216357
 C        -2.648004         0.107920        -1.582735
 C        -2.477325        -1.158397        -2.348499
 C        -2.063682        -1.215302        -0.957507
 C        -0.591061        -1.294493        -0.587772
 C         0.071866         0.029299         0.016185
 O         1.099378        -0.000845         0.641021
 C        -0.825699         1.211509        -0.115748
 C        -1.569471         1.226401        -1.474360
 H        -4.074001         0.524813        -0.341607
 H        -3.442303        -1.572730        -2.622496
 H        -1.765197        -1.223645        -3.181420
 H        -2.752367        -1.658570        -0.200850
 H        -0.468663        -2.027255         0.200738
 H        -0.055072        -1.366765        -1.527135
 H        -1.616314         1.280080         0.654507
 H        -0.117296         2.026455         0.139290
 H        -1.964995         2.233842        -1.767690
 H        -0.961173         0.863255        -2.321470
