19
Iteration:  1799charge 0 multiplicity 1
 O        -4.052665         0.227636        -1.251540
 C        -2.554891         0.051369        -1.421465
 C        -2.032616        -1.050508        -2.410079
 C        -2.076724        -1.271777        -0.906430
 C        -0.805976        -1.373810        -0.177736
 C        -0.024248        -0.089667        -0.106757
 O         1.108413        -0.029549         0.235304
 C        -0.763944         1.271339        -0.171655
 C        -1.782628         1.413134        -1.333119
 H        -4.075634         1.249044        -1.471048
 H        -2.959075        -1.458935        -2.919999
 H        -1.060903        -0.813620        -2.686476
 H        -2.883774        -1.907305        -0.516050
 H        -1.043777        -1.743132         0.808242
 H        -0.142319        -2.075514        -0.687308
 H        -1.271421         1.455278         0.837539
 H        -0.110447         2.133858        -0.242972
 H        -2.367386         2.355573        -1.156636
 H        -1.051977         1.504530        -2.169308
