19
Iteration:  4480charge 0 multiplicity 1
 O        -4.066109         0.128140        -1.579321
 C        -2.687818         0.089073        -1.338810
 C        -1.910951        -0.794180        -2.389437
 C        -2.030858        -1.331084        -0.970206
 C        -0.825696        -1.271933        -0.036642
 C         0.050325        -0.056039        -0.085647
 O         1.205986        -0.150566         0.047660
 C        -0.594589         1.256297        -0.367943
 C        -2.114560         1.354138        -0.802971
 H        -4.429188         0.307768        -0.720646
 H        -2.583885        -1.228713        -3.219014
 H        -0.986440        -0.359473        -2.678010
 H        -2.831326        -1.991007        -0.584143
 H        -1.207075        -1.460535         0.977767
 H        -0.029088        -2.016900        -0.133092
 H        -0.463287         1.866204         0.585259
 H         0.043260         1.756055        -1.131891
 H        -2.725728         1.548657         0.041487
 H        -2.218059         2.248552        -1.542274
