19
Iteration:  1932charge 0 multiplicity 1
 O        -4.005177         0.251840        -1.403802
 C        -2.620165         0.038069        -1.435530
 C        -2.237287        -1.041149        -2.381366
 C        -2.171777        -1.282524        -0.850023
 C        -0.801622        -1.209519        -0.170825
 C         0.080501         0.005830        -0.005816
 O         1.287663        -0.031981         0.107178
 C        -0.836961         1.241034         0.039432
 C        -1.682744         1.282442        -1.316910
 H        -4.165853         0.799392        -2.254350
 H        -3.006633        -1.617935        -2.757653
 H        -1.358344        -1.016695        -3.098608
 H        -3.003165        -1.925393        -0.564295
 H        -0.806303        -1.720351         0.775319
 H        -0.160219        -1.888287        -0.726521
 H        -1.579360         0.891688         0.746742
 H        -0.460743         2.176107         0.384153
 H        -2.436460         2.145928        -1.081009
 H        -0.859624         1.507547        -2.017415
