19
Iteration:  3270
 O        -3.957398         0.236941        -1.573459
 C        -2.591510         0.004555        -1.349931
 C        -1.884324        -0.846492        -2.297002
 C        -2.134975        -1.302716        -0.787312
 C        -0.879714        -1.449002         0.057937
 C         0.006737        -0.071952        -0.146139
 O         1.217220         0.025782        -0.275118
 C        -0.912699         1.193250         0.041684
 C        -1.862958         1.386569        -1.143699
 H        -4.386989         0.721623        -0.872055
 H        -2.393709        -1.525281        -3.049312
 H        -0.860710        -0.444337        -2.329879
 H        -2.991462        -1.935585        -0.651215
 H        -1.268375        -1.516483         1.130780
 H        -0.317316        -2.396283        -0.125427
 H        -1.499081         1.275553         1.043988
 H        -0.138112         2.013396         0.033570
 H        -2.521514         2.133281        -0.917899
 H        -1.226121         1.775316        -2.012081
