19
Iteration:  4258
 O        -3.988459         0.239540        -1.573472
 C        -2.609027         0.054288        -1.400982
 C        -2.003335        -0.964922        -2.355886
 C        -2.010390        -1.299726        -0.917327
 C        -0.847518        -1.288354         0.115783
 C         0.007937        -0.074588        -0.036475
 O         1.233558         0.051182        -0.365975
 C        -0.882894         1.191654         0.136442
 C        -1.832805         1.328908        -1.021297
 H        -4.431350         0.658412        -0.893992
 H        -2.579800        -1.766058        -2.973688
 H        -1.061419        -0.747217        -2.829473
 H        -2.758779        -2.116649        -0.805154
 H        -1.306483        -1.426760         1.173035
 H        -0.328524        -2.210025        -0.135261
 H        -1.549669         1.008149         1.042592
 H        -0.431594         2.156002         0.328698
 H        -2.480568         2.125894        -0.889315
 H        -1.411586         1.581212        -2.049060
