19
Iteration:   195
 O        -4.021867         0.074727        -1.605372
 C        -2.623997         0.092998        -1.417371
 C        -1.962892        -0.952095        -2.246107
 C        -2.108852        -1.220222        -0.741836
 C        -0.872956        -1.280635         0.037517
 C        -0.045160        -0.018407        -0.072190
 O         1.130596        -0.251526        -0.191426
 C        -0.727190         1.408683        -0.011290
 C        -1.735610         1.469747        -1.221161
 H        -4.405282         0.049645        -0.605871
 H        -2.547357        -1.457105        -2.948888
 H        -1.010561        -0.616874        -2.553674
 H        -2.922132        -1.909267        -0.524194
 H        -1.098336        -1.297216         1.129551
 H        -0.351059        -2.177798        -0.196861
 H        -1.282004         1.514958         0.960580
 H         0.025346         2.207194        -0.101750
 H        -2.571491         2.127491        -0.991741
 H        -1.220264         1.655725        -2.166905
