19
Iteration:  1920charge 0 multiplicity 1
 O        -3.957143         0.273191        -1.369528
 C        -2.569727         0.064162        -1.464041
 C        -2.219084        -1.090540        -2.379532
 C        -2.147940        -1.214962        -0.864700
 C        -0.801474        -1.349246        -0.234234
 C         0.043542         0.057502        -0.069442
 O         1.231818        -0.044687         0.167608
 C        -0.817993         1.251875        -0.040598
 C        -1.737015         1.321270        -1.188187
 H        -4.302419         0.392658        -2.194746
 H        -3.018553        -1.555050        -2.866966
 H        -1.170988        -1.086584        -2.801186
 H        -2.882072        -1.800168        -0.337453
 H        -0.958035        -1.710990         0.778672
 H        -0.152354        -2.018759        -0.792047
 H        -1.444316         1.030748         0.846351
 H        -0.281398         2.149293         0.130378
 H        -2.502813         2.202400        -1.260159
 H        -1.242430         1.541191        -2.173450
