19
Iteration:  2691charge 0 multiplicity 1
 O        -4.009153         0.270287        -1.291292
 C        -2.651787         0.083556        -1.336425
 C        -2.236823        -0.932124        -2.462326
 C        -2.025058        -1.228891        -0.996663
 C        -0.739703        -1.393133        -0.213130
 C         0.033021        -0.069773         0.078579
 O         1.197091         0.013405         0.267507
 C        -0.810852         1.240640        -0.165906
 C        -1.735979         1.363650        -1.385625
 H        -4.418753        -0.540010        -0.918442
 H        -2.797098        -1.768053        -2.822536
 H        -1.308716        -0.922959        -3.101534
 H        -2.920317        -1.778785        -0.603642
 H        -1.078431        -1.946201         0.731866
 H        -0.096203        -2.048652        -0.827764
 H        -1.325710         1.384587         0.834983
 H        -0.048873         2.048058        -0.092844
 H        -2.515887         2.226268        -1.457618
 H        -1.051765         1.330090        -2.371741
