19
Iteration:  3316charge 0 multiplicity 1
 O        -3.957809         0.206633        -1.604898
 C        -2.581421         0.086665        -1.521811
 C        -2.176461        -1.089706        -2.354114
 C        -2.081312        -1.191802        -0.851104
 C        -0.775311        -1.347594        -0.077575
 C         0.080977        -0.088508         0.048490
 O         1.281051        -0.037736        -0.154166
 C        -0.843662         1.339299         0.171713
 C        -1.901063         1.349175        -1.107291
 H        -4.544924         0.380938        -0.807168
 H        -3.084666        -1.476334        -2.712164
 H        -1.244837        -0.946926        -3.027433
 H        -2.934029        -1.872731        -0.658794
 H        -0.802793        -1.663677         1.020233
 H        -0.103879        -2.031707        -0.609349
 H        -1.412954         1.378233         1.215848
 H        -0.266507         2.254999         0.172239
 H        -2.636543         2.114622        -0.970936
 H        -1.354789         1.745342        -1.991771
