19
Iteration:   267
 O        -3.987916         0.268874        -1.626100
 C        -2.629523         0.073821        -1.390832
 C        -1.910943        -0.970842        -2.226999
 C        -2.154789        -1.267345        -0.724219
 C        -0.865584        -1.278423         0.087408
 C        -0.061912        -0.027249        -0.042608
 O         1.133737        -0.180896        -0.252423
 C        -0.747964         1.346581        -0.020504
 C        -1.799838         1.324778        -1.197835
 H        -4.538548        -0.242523        -0.868403
 H        -2.305851        -1.560698        -3.020271
 H        -0.890672        -0.538569        -2.513889
 H        -2.907028        -2.006339        -0.551553
 H        -1.077235        -1.492948         1.152501
 H        -0.075112        -2.020976        -0.213843
 H        -1.224813         1.530624         0.924262
 H         0.019492         2.128192        -0.230337
 H        -2.580915         2.121596        -1.050424
 H        -1.272376         1.535422        -2.199598
