19
Iteration:  1449
 O        -4.041191         0.153323        -1.631626
 C        -2.590415         0.058456        -1.422985
 C        -1.924679        -0.892905        -2.411449
 C        -2.036224        -1.256767        -0.937391
 C        -0.925170        -1.210586         0.167982
 C        -0.011958        -0.061013        -0.103295
 O         1.168123        -0.204346        -0.149989
 C        -0.711787         1.317027        -0.072057
 C        -1.846135         1.350179        -0.922665
 H        -4.354358         0.600397        -0.693972
 H        -2.458376        -1.492663        -3.234099
 H        -0.989906        -0.604201        -2.822900
 H        -2.946343        -1.897618        -0.724461
 H        -1.577008        -1.191848         1.043460
 H        -0.487603        -2.198696        -0.015826
 H        -1.013985         1.276267         1.026077
 H         0.047285         2.036000        -0.343377
 H        -2.657947         1.894985        -0.364095
 H        -1.594760         2.009378        -1.760980
