19
Iteration:  1571charge 0 multiplicity 1
 O        -4.076531         0.148584        -1.592131
 C        -2.627226         0.102850        -1.378988
 C        -2.025241        -0.909288        -2.422032
 C        -2.061433        -1.212000        -0.910885
 C        -0.900322        -1.257213        -0.039759
 C         0.019479        -0.110593        -0.065189
 O         1.254031        -0.168183         0.010177
 C        -0.658595         1.297637        -0.022351
 C        -1.921283         1.375711        -1.076142
 H        -4.432332         0.475752        -0.806820
 H        -2.585044        -1.529501        -3.124456
 H        -1.007181        -0.782799        -2.907347
 H        -2.844652        -1.854791        -0.582118
 H        -1.159492        -1.125261         1.043411
 H        -0.163847        -2.074707        -0.111925
 H        -0.991187         1.126743         1.035474
 H         0.048819         2.065035        -0.249833
 H        -2.712230         2.071183        -0.807605
 H        -1.460280         1.767552        -2.004317
