19
Iteration:  2466charge 0 multiplicity 1
 O        -3.973816         0.262949        -1.394374
 C        -2.548732         0.015161        -1.438668
 C        -2.206101        -0.948035        -2.410680
 C        -2.086448        -1.268995        -0.863382
 C        -0.806808        -1.377116        -0.137593
 C        -0.000725        -0.063730        -0.135020
 O         1.201711         0.033641         0.228667
 C        -0.736077         1.269822        -0.130123
 C        -1.834863         1.364917        -1.188381
 H        -4.385391        -0.333167        -1.954847
 H        -2.942839        -1.639959        -2.996340
 H        -1.250637        -0.677185        -2.917034
 H        -2.955148        -1.697582        -0.299321
 H        -0.799277        -1.830681         0.840538
 H        -0.100074        -2.159638        -0.537529
 H        -1.077353         1.317017         0.931344
 H         0.118314         1.964497        -0.451504
 H        -2.654045         1.977042        -0.995572
 H        -1.523086         1.716047        -2.113122
