19
Iteration:  2319
 O        -3.861757         0.407544        -1.510800
 C        -2.534789         0.081101        -1.375864
 C        -1.991126        -1.027835        -2.321687
 C        -2.115041        -1.273177        -0.864236
 C        -0.818936        -1.414361         0.060246
 C        -0.047759        -0.076138        -0.088583
 O         1.098618         0.106218        -0.261363
 C        -0.929215         1.147959         0.104495
 C        -1.753268         1.264587        -1.159765
 H        -4.539044        -0.396666        -1.435274
 H        -2.704686        -1.384724        -3.035581
 H        -1.065675        -0.785217        -2.857014
 H        -2.898896        -1.978502        -0.480420
 H        -1.223800        -1.325774         1.086705
 H        -0.228356        -2.311588         0.141582
 H        -1.726378         1.206790         0.972330
 H        -0.255486         2.004213         0.190588
 H        -2.292767         2.239496        -1.332128
 H        -1.129733         1.375452        -1.963857
