19
Iteration:   131charge 0 multiplicity 1
 O        -4.060403         0.260767        -1.721468
 C        -2.596585         0.029503        -1.428575
 C        -2.127903        -1.209746        -2.299526
 C        -2.159294        -1.265778        -0.811021
 C        -0.816387        -1.178504         0.020731
 C         0.105003         0.036170        -0.077129
 O         1.317928        -0.156067        -0.026714
 C        -0.675171         1.342943        -0.105588
 C        -1.918508         1.314737        -1.060027
 H        -4.418975         1.096359        -1.102298
 H        -3.034854        -1.401889        -2.766718
 H        -1.264658        -1.252984        -2.941049
 H        -2.827925        -1.937271        -0.276103
 H        -1.118782        -1.329204         1.098400
 H        -0.119358        -1.981471        -0.218747
 H        -1.105778         1.265206         0.940818
 H        -0.129303         2.291489        -0.176277
 H        -2.633838         1.971304        -0.413431
 H        -1.754726         2.039674        -1.859151
