19
Iteration:  4359
 O        -4.029391         0.228247        -1.716069
 C        -2.640464         0.062610        -1.439461
 C        -1.792078        -0.860742        -2.268714
 C        -2.027364        -1.429324        -0.842873
 C        -0.831129        -1.243564         0.199087
 C         0.005813        -0.021595        -0.083794
 O         1.154750        -0.123884        -0.544931
 C        -0.812028         1.231763         0.135844
 C        -1.981050         1.356506        -0.871139
 H        -4.490958         0.584515        -0.901554
 H        -2.246361        -1.286502        -3.131513
 H        -0.705219        -0.553674        -2.433225
 H        -2.812166        -2.147784        -0.789076
 H        -1.442883        -1.109782         1.193868
 H        -0.179988        -2.122830         0.458283
 H        -1.314412         1.046580         1.102525
 H        -0.171238         2.182745         0.190038
 H        -2.696810         1.982115        -0.456721
 H        -1.567501         1.877434        -1.838521
