19
Iteration:    35
 O        -3.946217         0.165079        -1.464465
 C        -2.631167        -0.015907        -1.448595
 C        -2.096888        -1.043520        -2.400032
 C        -2.060707        -1.284064        -0.951494
 C        -1.037805        -1.180287         0.094058
 C         0.025167         0.036539         0.034802
 O         1.202812        -0.129413        -0.088781
 C        -0.650553         1.375454        -0.062067
 C        -1.778303         1.373387        -1.205300
 H        -4.310189        -0.276453        -0.769302
 H        -2.802208        -1.669993        -2.889933
 H        -1.265635        -0.534448        -3.003651
 H        -2.827261        -2.071848        -0.753866
 H        -1.565985        -1.254014         1.042109
 H        -0.438958        -2.116088         0.003239
 H        -1.153408         1.520487         0.892090
 H         0.160927         2.078489        -0.135662
 H        -2.422749         2.150091        -0.928395
 H        -1.274498         1.739613        -2.150436
