19
Iteration:  4035charge 0 multiplicity 1
 O        -3.896570         0.319258        -1.043233
 C        -2.622432         0.019813        -1.495608
 C        -2.499401        -1.121459        -2.416624
 C        -1.996238        -1.228974        -0.927394
 C        -0.514987        -1.304528        -0.709446
 C        -0.025485         0.033163         0.017182
 O         0.978826         0.072212         0.614464
 C        -0.905602         1.227677        -0.112423
 C        -1.563275         1.191824        -1.557866
 H        -3.999986         0.385263        -0.146762
 H        -3.366281        -1.694859        -2.875430
 H        -1.637578        -0.939694        -2.970827
 H        -2.573584        -1.892989        -0.294226
 H         0.064938        -2.110911        -0.176009
 H        -0.051578        -1.068247        -1.655225
 H        -1.625259         1.265582         0.756177
 H        -0.257300         2.152289        -0.024549
 H        -2.125489         2.194139        -1.838714
 H        -0.785897         0.919200        -2.260890
