19
Iteration:  4652
 O        -4.112268         0.179375        -1.200811
 C        -2.718949        -0.006906        -1.419597
 C        -2.262086        -0.735092        -2.571372
 C        -1.991403        -1.287986        -1.101290
 C        -0.582210        -1.396083        -0.407021
 C         0.101031        -0.041513         0.001454
 O         1.005175        -0.011221         0.799984
 C        -0.412080         1.242410        -0.760275
 C        -2.000180         1.304555        -0.953857
 H        -4.183027         0.364250        -0.222199
 H        -3.037662        -1.193644        -3.267928
 H        -1.429779        -0.280166        -3.188864
 H        -2.600873        -2.127711        -0.797933
 H        -0.627021        -2.143459         0.499529
 H         0.129138        -1.979775        -1.112337
 H         0.026876         2.072790        -0.242052
 H         0.051536         1.234902        -1.762517
 H        -2.585176         1.637704        -0.055204
 H        -2.213000         2.049224        -1.663942
