19
Iteration:  2336
 O        -3.981900         0.397516        -1.392682
 C        -2.510629         0.041693        -1.486488
 C        -1.971706        -0.962466        -2.391533
 C        -2.035057        -1.339005        -0.867153
 C        -0.903072        -1.336777         0.093219
 C        -0.051476        -0.023938        -0.004793
 O         1.131568         0.002222        -0.256616
 C        -0.951215         1.192895         0.089312
 C        -1.708270         1.314045        -1.247522
 H        -4.635369        -0.371150        -1.340387
 H        -2.503838        -1.737073        -3.028082
 H        -0.966708        -0.762979        -2.774143
 H        -2.765324        -2.093513        -0.540313
 H        -1.180814        -1.344650         1.184792
 H        -0.206666        -2.188677        -0.130600
 H        -1.567511         1.036156         0.929663
 H        -0.294972         2.047411         0.349432
 H        -2.417311         2.128992        -1.251322
 H        -0.841836         1.542649        -2.041833
