19
Iteration:  4895charge 0 multiplicity 1
 O        -4.033550         0.141200        -1.073756
 C        -2.644078         0.063957        -1.330261
 C        -2.201498        -0.643885        -2.555274
 C        -2.002997        -1.322178        -1.170881
 C        -0.620215        -1.418556        -0.442431
 C         0.091447        -0.100830        -0.210830
 O         0.823380         0.029434         0.831589
 C        -0.402657         1.213053        -0.852574
 C        -1.930163         1.254833        -0.814778
 H        -4.343199         0.980670        -1.570099
 H        -2.993873        -1.128729        -3.221257
 H        -1.307081        -0.335021        -3.001576
 H        -2.709702        -2.174650        -0.975104
 H        -0.664236        -1.980931         0.502311
 H        -0.028922        -2.025339        -1.088020
 H        -0.041134         2.072734        -0.258064
 H        -0.013704         1.125382        -1.809026
 H        -2.277659         1.246473         0.307698
 H        -2.308823         2.207255        -1.251812
