19
Iteration:  1386charge 0 multiplicity 1
 O        -3.971004         0.096153        -1.812338
 C        -2.613904         0.089212        -1.386326
 C        -1.874866        -0.844151        -2.224920
 C        -2.151505        -1.167919        -0.774795
 C        -0.974180        -1.326711         0.103795
 C         0.003260        -0.079497        -0.088560
 O         1.219420        -0.221123        -0.331175
 C        -0.746467         1.285449         0.004375
 C        -1.891730         1.492882        -0.900830
 H        -4.636232         0.116283        -0.985558
 H        -2.441962        -1.395149        -3.050906
 H        -0.879847        -0.568114        -2.495862
 H        -2.773662        -2.052518        -0.528460
 H        -1.271485        -1.345683         1.157633
 H        -0.419050        -2.277377        -0.083478
 H        -1.128393         1.531958         0.960983
 H         0.154783         1.884734        -0.056109
 H        -2.609457         2.071639        -0.394967
 H        -1.536824         1.913654        -1.847617
