19
Iteration:  2653charge 0 multiplicity 1
 O        -3.921308         0.468044        -1.286077
 C        -2.593648        -0.007861        -1.424522
 C        -2.220577        -1.109969        -2.405527
 C        -2.077482        -1.261563        -0.937854
 C        -0.732914        -1.289068        -0.325334
 C         0.044230         0.002914        -0.095486
 O         1.180336         0.007329         0.270763
 C        -0.882284         1.215428        -0.048067
 C        -1.787712         1.271385        -1.279989
 H        -4.502899        -0.239227        -1.302250
 H        -2.873073        -1.869680        -3.001605
 H        -1.161699        -1.066507        -2.851580
 H        -2.711446        -2.031860        -0.514524
 H        -0.888748        -1.664950         0.680475
 H         0.035388        -1.959178        -0.799772
 H        -1.560483         0.989647         0.840073
 H        -0.321357         2.151488         0.139478
 H        -2.434606         2.102382        -1.337274
 H        -1.279774         1.421172        -2.196328
