19
Iteration:  1563
 O        -4.069267         0.122996        -1.620559
 C        -2.651764         0.102338        -1.418721
 C        -2.032770        -0.947191        -2.404220
 C        -2.061996        -1.185563        -0.940162
 C        -0.814571        -1.190326        -0.046808
 C         0.022375        -0.053253        -0.031432
 O         1.198462        -0.197689        -0.000004
 C        -0.657519         1.250527        -0.030162
 C        -1.882191         1.356330        -1.003604
 H        -4.290102         0.577537        -0.884131
 H        -2.900789        -1.478157        -2.953461
 H        -1.146939        -0.651646        -2.919646
 H        -2.845645        -1.870415        -0.569658
 H        -1.252584        -1.172059         0.936519
 H        -0.255880        -2.127758        -0.097524
 H        -0.904786         1.322618         1.122468
 H         0.066972         2.028138        -0.361021
 H        -2.640434         2.041655        -0.702593
 H        -1.516616         1.798556        -1.953116
