19
Iteration:  2438
 O        -4.175732         0.306406        -1.518564
 C        -2.605382         0.066763        -1.440825
 C        -2.058766        -1.063205        -2.318331
 C        -2.088782        -1.264612        -0.856991
 C        -0.765445        -1.276030        -0.228431
 C         0.086028         0.014909        -0.019882
 O         1.262806        -0.129615         0.173291
 C        -0.706366         1.331639        -0.142815
 C        -1.867213         1.338557        -1.128860
 H        -4.770525        -0.469048        -1.589449
 H        -2.736660        -1.644770        -2.806000
 H        -1.125591        -0.947032        -2.894390
 H        -2.774492        -1.862827        -0.319066
 H        -0.925981        -1.723790         0.809920
 H        -0.023551        -1.998266        -0.591274
 H        -1.255963         1.139812         0.807534
 H        -0.090848         2.180649        -0.057434
 H        -2.598493         2.190436        -0.786397
 H        -1.580130         1.813982        -2.214965
