19
Iteration:   556charge 0 multiplicity 1
 O        -3.870410         0.488870        -1.075264
 C        -2.617196         0.044917        -1.519005
 C        -2.401884        -1.085994        -2.499597
 C        -2.047851        -1.316343        -1.013069
 C        -0.650349        -1.291357        -0.411379
 C        -0.041895         0.030794         0.054079
 O         1.093581         0.014588         0.479545
 C        -0.886371         1.291370        -0.146061
 C        -1.578767         1.106492        -1.487418
 H        -4.400463        -0.188633        -0.473649
 H        -3.385984        -1.598495        -2.765362
 H        -1.585703        -1.016813        -3.208036
 H        -2.700159        -1.978895        -0.483793
 H        -0.560865        -1.832690         0.555004
 H         0.049202        -1.791574        -1.091988
 H        -1.647685         1.274873         0.614737
 H        -0.262532         2.167229        -0.062226
 H        -2.108072         2.013977        -1.778520
 H        -0.837972         0.831674        -2.284216
