19
Iteration:  1608charge 0 multiplicity 1
 O        -4.018997         0.302810        -1.493455
 C        -2.629411         0.054163        -1.390709
 C        -1.909914        -0.861480        -2.371651
 C        -2.051347        -1.229389        -0.850320
 C        -0.832923        -1.371813         0.007727
 C        -0.039391        -0.112670        -0.077085
 O         1.154759        -0.080092        -0.046115
 C        -0.791028         1.167767        -0.074386
 C        -1.848922         1.408301        -1.193892
 H        -4.540640        -0.054486        -0.854262
 H        -2.510421        -1.500866        -3.067870
 H        -0.852432        -0.685531        -2.506400
 H        -2.903493        -1.911862        -0.598350
 H        -1.130987        -1.664902         0.994703
 H        -0.230210        -2.218121        -0.401377
 H        -1.402650         1.349197         0.873001
 H         0.081642         1.936953        -0.078272
 H        -2.611306         2.169177        -0.950509
 H        -1.398600         1.640453        -2.182273
