19
Iteration:  4707charge 0 multiplicity 1
 O        -4.010335         0.079394        -1.017100
 C        -2.660438         0.097350        -1.307815
 C        -2.119851        -0.722293        -2.492543
 C        -2.016674        -1.297978        -1.133107
 C        -0.598189        -1.448552        -0.578575
 C         0.039483        -0.058289        -0.144022
 O         0.731533         0.066249         0.897010
 C        -0.392745         1.179980        -0.976847
 C        -1.912185         1.362785        -0.824008
 H        -4.480324         0.756080        -1.648053
 H        -2.861349        -1.230286        -3.092840
 H        -1.110681        -0.427339        -3.008020
 H        -2.723653        -2.042751        -0.861017
 H        -0.654384        -2.197949         0.306646
 H        -0.057782        -1.869391        -1.494452
 H         0.071053         2.015668        -0.522616
 H        -0.057946         0.978136        -1.972584
 H        -2.173773         1.378009         0.252293
 H        -2.140644         2.230672        -1.310091
