19
Iteration:  1882
 O        -4.004383         0.316263        -1.279767
 C        -2.637146         0.089272        -1.421397
 C        -2.130815        -0.974457        -2.391984
 C        -2.069726        -1.245924        -0.933403
 C        -0.757671        -1.391618        -0.142274
 C         0.013046        -0.082930        -0.002932
 O         1.183922        -0.048957         0.272681
 C        -0.723560         1.292359        -0.233135
 C        -1.861714         1.319157        -1.284924
 H        -4.423017        -0.031848        -2.147263
 H        -2.815529        -1.556557        -3.101509
 H        -1.273643        -0.788835        -3.017412
 H        -2.913802        -1.895003        -0.628082
 H        -0.828227        -2.094710         0.743731
 H        -0.026894        -1.977054        -0.765948
 H        -1.354104         1.290282         0.714953
 H        -0.000543         2.185099        -0.381298
 H        -2.349736         2.237207        -0.864945
 H        -1.438108         1.567792        -2.297940
