19
Iteration:  4182
 O        -4.069966         0.262089        -1.394975
 C        -2.699394         0.031037        -1.414185
 C        -2.191632        -0.976793        -2.394851
 C        -2.059815        -1.252266        -0.945102
 C        -0.670618        -1.327218        -0.252930
 C         0.075557        -0.055295        -0.030848
 O         1.314689         0.085336         0.197389
 C        -0.822690         1.147078        -0.083189
 C        -1.827733         1.336256        -1.238986
 H        -4.554848         0.105965        -0.480162
 H        -2.866218        -1.712750        -2.913660
 H        -1.217755        -0.745424        -2.890110
 H        -2.902643        -1.880056        -0.616226
 H        -1.111240        -1.617961         0.730277
 H        -0.191885        -2.189636        -0.686417
 H        -1.248139         1.113206         0.943028
 H        -0.214788         2.032675        -0.116294
 H        -2.440878         2.141813        -0.979837
 H        -1.367436         1.644837        -2.307752
