19
Iteration:  4660
 O        -4.097275         0.159461        -1.177864
 C        -2.708527         0.053354        -1.410433
 C        -2.265973        -0.806339        -2.569447
 C        -1.962947        -1.331229        -1.143966
 C        -0.612498        -1.371157        -0.466112
 C         0.079054        -0.040331        -0.014523
 O         0.978298        -0.006591         0.829342
 C        -0.405984         1.289400        -0.768487
 C        -1.953286         1.299324        -0.911448
 H        -4.240604         0.666113        -0.364027
 H        -3.238648        -1.334556        -3.106085
 H        -1.473762        -0.368697        -3.172088
 H        -2.611343        -2.241302        -0.983382
 H        -0.792542        -1.821290         0.514156
 H         0.178915        -1.858348        -1.109237
 H         0.110696         1.999255        -0.184587
 H        -0.081208         1.157890        -1.773477
 H        -2.406129         1.498611         0.070082
 H        -2.151324         2.016530        -1.671659
