19
Iteration:  1955
 O        -4.064311         0.338922        -1.393876
 C        -2.644684         0.082089        -1.501552
 C        -2.195696        -1.078814        -2.378421
 C        -2.049767        -1.192296        -0.890515
 C        -0.678899        -1.377593        -0.134108
 C         0.019836        -0.062848         0.038468
 O         1.213102         0.064913         0.014519
 C        -0.904506         1.208991         0.066063
 C        -1.693341         1.212620        -1.259499
 H        -4.239481         1.085771        -1.926118
 H        -2.933078        -1.679681        -2.936331
 H        -1.226531        -1.041463        -2.877508
 H        -2.903808        -1.741532        -0.423157
 H        -1.054439        -1.704774         0.823958
 H        -0.053636        -2.212266        -0.436023
 H        -1.597578         1.176902         0.901304
 H        -0.282278         2.108326         0.150020
 H        -2.201931         2.228073        -1.497786
 H        -0.687406         1.096417        -1.791276
