19
Iteration:  2743
 O        -4.031128         0.303199        -1.269732
 C        -2.671269         0.049355        -1.427054
 C        -2.111423        -1.040982        -2.438112
 C        -2.038666        -1.231015        -0.989883
 C        -0.747043        -1.324220        -0.235513
 C         0.018397        -0.054806        -0.010097
 O         1.229161        -0.034299         0.277712
 C        -0.819769         1.256640        -0.146866
 C        -1.774396         1.309778        -1.328795
 H        -4.121461         0.196165        -0.346009
 H        -2.965023        -1.381422        -3.092511
 H        -1.286284        -0.684049        -3.070770
 H        -2.717402        -2.101032        -0.884778
 H        -1.183669        -1.500328         0.741441
 H        -0.201128        -2.186247        -0.613251
 H        -1.447276         1.416053         0.782901
 H        -0.131877         2.083501        -0.101268
 H        -2.579269         1.956126        -1.224483
 H        -1.362824         1.602172        -2.194817
