19
Iteration:  2095charge 0 multiplicity 1
 O        -4.015189         0.145514        -1.407882
 C        -2.594920         0.077642        -1.485947
 C        -2.150969        -1.036936        -2.401824
 C        -2.188283        -1.110988        -0.835535
 C        -0.768437        -1.418768        -0.169435
 C         0.055831        -0.101086        -0.016217
 O         1.302197        -0.043452         0.190689
 C        -0.740006         1.319259        -0.106199
 C        -1.886947         1.457984        -1.220105
 H        -4.114193         0.335736        -2.456567
 H        -3.120293        -1.597349        -2.694399
 H        -1.212798        -1.089104        -2.893117
 H        -3.071833        -1.580131        -0.365822
 H        -0.854952        -1.938738         0.834262
 H        -0.170827        -2.133282        -0.781549
 H        -1.252862         1.381640         0.953023
 H         0.067979         2.067212        -0.201359
 H        -2.627953         2.108900        -0.697442
 H        -1.506940         1.844708        -2.190407
