19
Iteration:  2659
 O        -3.962157         0.463868        -1.271640
 C        -2.585445         0.005644        -1.421942
 C        -2.184016        -1.062712        -2.431112
 C        -2.090560        -1.275580        -0.913260
 C        -0.721834        -1.285597        -0.340223
 C         0.007362         0.002574        -0.100994
 O         1.199661         0.000608         0.286837
 C        -0.894706         1.189446        -0.074891
 C        -1.772383         1.242868        -1.326729
 H        -4.609544        -0.317530        -1.209874
 H        -2.750769        -1.813602        -2.833383
 H        -1.144672        -0.980826        -2.741977
 H        -2.848333        -1.930801        -0.469816
 H        -0.728465        -1.628436         0.730756
 H         0.025376        -1.985121        -0.719744
 H        -1.561157         1.063700         0.757691
 H        -0.238968         2.068186         0.065787
 H        -2.568728         2.052514        -1.131725
 H        -1.036697         1.533254        -2.174620
