19
Iteration:   680charge 0 multiplicity 1
 O        -3.950810         0.311504        -1.022030
 C        -2.488547         0.082659        -1.471187
 C        -2.559731        -1.168364        -2.332309
 C        -1.965844        -1.238735        -0.963413
 C        -0.452670        -1.333559        -0.802121
 C         0.026683        -0.054087        -0.042091
 O         0.774600         0.000413         0.946942
 C        -0.653522         1.249799        -0.414444
 C        -1.650493         1.360701        -1.588242
 H        -3.812349         0.387209        -0.127078
 H        -3.573472        -1.512942        -2.491376
 H        -1.790476        -1.284724        -3.054401
 H        -2.636002        -1.709955        -0.186421
 H        -0.270772        -2.197830        -0.134512
 H        -0.008630        -1.435232        -1.811324
 H        -1.264045         1.585525         0.396852
 H         0.063651         2.085988        -0.494726
 H        -2.316953         2.317564        -1.662106
 H        -1.213631         1.272970        -2.630498
