19
Iteration:  4353
 O        -4.002446         0.239922        -1.742230
 C        -2.636981         0.045515        -1.373451
 C        -1.797177        -0.888377        -2.238218
 C        -1.975471        -1.385470        -0.867953
 C        -0.877746        -1.213007         0.185734
 C        -0.046479        -0.037757        -0.081846
 O         1.183399        -0.123990        -0.568145
 C        -0.805270         1.248251         0.211966
 C        -1.974935         1.331067        -0.948068
 H        -4.369393         0.518299        -0.807624
 H        -2.412342        -1.339883        -3.083374
 H        -0.787190        -0.730699        -2.510038
 H        -2.783443        -2.151049        -0.655979
 H        -1.294433        -1.042207         1.105266
 H        -0.299828        -2.153419         0.139624
 H        -1.337622         1.115802         1.160908
 H        -0.161975         2.049687         0.349066
 H        -2.919894         1.958813        -0.516936
 H        -1.717777         1.989410        -1.708665
