19
Iteration:  2109
 O        -4.037398         0.113174        -1.466111
 C        -2.586497         0.163050        -1.416420
 C        -2.225003        -0.980103        -2.311600
 C        -2.098728        -1.215905        -0.839696
 C        -0.785774        -1.345323        -0.187474
 C         0.050870        -0.062153        -0.071962
 O         1.217599        -0.043094         0.220863
 C        -0.687956         1.225965        -0.168713
 C        -1.820938         1.414170        -1.173754
 H        -4.468526         0.113126        -2.251087
 H        -2.848812        -1.414319        -3.021963
 H        -1.221211        -0.960525        -2.856636
 H        -2.848075        -1.845089        -0.398861
 H        -0.987101        -1.635455         0.854876
 H        -0.193261        -2.114895        -0.711785
 H        -1.064999         1.426510         0.794538
 H         0.071247         2.028389        -0.315611
 H        -2.601979         2.258146        -0.923420
 H        -1.432991         1.901290        -2.000305
