19
Iteration:   493
 O        -3.873759         0.266649        -1.279753
 C        -2.586145         0.100292        -1.586241
 C        -2.436243        -1.228440        -2.379064
 C        -2.109560        -1.146086        -0.875030
 C        -0.651413        -1.285194        -0.342048
 C         0.129547        -0.060913        -0.089424
 O         1.258227        -0.039488         0.393684
 C        -0.889574         1.252447        -0.063511
 C        -1.797843         1.342954        -1.338388
 H        -4.122127         1.139500        -1.939826
 H        -3.457259        -1.690027        -2.564812
 H        -1.645731        -1.377944        -3.051524
 H        -2.913380        -1.526516        -0.307869
 H        -0.965334        -1.666264         0.660914
 H        -0.079400        -2.051182        -0.894097
 H        -1.555747         1.130178         0.832106
 H        -0.379560         2.217406         0.166127
 H        -2.497205         2.260891        -1.320471
 H        -0.991608         1.504561        -2.105453
