19
Iteration:  2765
 O        -4.031988         0.180444        -1.377436
 C        -2.653123         0.108143        -1.403853
 C        -2.207860        -0.907121        -2.503910
 C        -2.052854        -1.275555        -0.841414
 C        -0.724743        -1.466413        -0.140621
 C         0.007574        -0.045067        -0.023651
 O         1.192123         0.025492         0.190175
 C        -0.814521         1.187218        -0.114693
 C        -1.712174         1.389776        -1.292836
 H        -4.282145         0.544251        -0.409602
 H        -2.861499        -1.591131        -3.059933
 H        -1.313922        -0.571180        -3.144511
 H        -3.068205        -1.659661        -0.638250
 H        -0.774405        -1.861755         0.846353
 H         0.033133        -1.902439        -0.792023
 H        -1.524715         1.430185         0.697167
 H        -0.141668         2.024444        -0.033461
 H        -2.122145         2.338705        -1.286830
 H        -1.177820         1.336388        -2.126019
