19
Iteration:  3503
 O        -3.965906         0.264566        -1.260289
 C        -2.591299         0.040878        -1.482158
 C        -2.432464        -1.056295        -2.450015
 C        -2.060338        -1.283561        -0.955803
 C        -0.604556        -1.208710        -0.515854
 C         0.034808         0.028213        -0.000059
 O         1.189143         0.000897         0.393252
 C        -0.921266         1.270316         0.020664
 C        -1.671998         1.211443        -1.385646
 H        -4.116097         0.179980        -0.258333
 H        -3.260410        -1.579149        -2.882255
 H        -1.541921        -1.256782        -3.010104
 H        -2.784851        -1.819889        -0.378843
 H        -0.609202        -1.619246         0.571318
 H         0.143538        -1.826140        -1.068398
 H        -1.698396         1.406754         0.790640
 H        -0.267567         2.135525         0.170379
 H        -2.129944         2.205598        -1.471018
 H        -0.904747         1.181587        -2.156392
