19
Iteration:  2338
 O        -3.986102         0.392946        -1.382778
 C        -2.511890         0.042122        -1.491194
 C        -1.954021        -0.973822        -2.403427
 C        -2.050400        -1.331246        -0.866859
 C        -0.904752        -1.329948         0.089768
 C        -0.043444        -0.011856         0.013458
 O         1.125630        -0.011184        -0.256830
 C        -0.933713         1.196585         0.082738
 C        -1.704773         1.316088        -1.246104
 H        -4.671945        -0.376272        -1.340094
 H        -2.496575        -1.725449        -3.031673
 H        -1.018124        -0.748605        -2.826036
 H        -2.718246        -2.116580        -0.551440
 H        -1.136236        -1.376818         1.173351
 H        -0.209489        -2.157872        -0.115856
 H        -1.639702         1.026514         0.894225
 H        -0.332394         2.053819         0.362645
 H        -2.404633         2.153914        -1.279975
 H        -0.930834         1.553939        -2.002364
