19
Iteration:  1530charge 0 multiplicity 1
 O        -4.000907         0.253162        -1.637080
 C        -2.609860         0.025802        -1.410303
 C        -1.974916        -0.919464        -2.332274
 C        -2.174447        -1.275365        -0.915959
 C        -0.780595        -1.400754         0.015239
 C         0.040276        -0.051719        -0.053391
 O         1.237277        -0.122552        -0.005915
 C        -0.674275         1.270326        -0.154389
 C        -2.026269         1.409467        -1.013766
 H        -4.404919         0.620244        -0.716927
 H        -2.700309        -1.232002        -3.133069
 H        -0.937866        -0.678989        -2.643683
 H        -3.028303        -1.852089        -0.584490
 H        -1.278109        -1.507899         0.944104
 H        -0.260838        -2.339415        -0.195007
 H        -0.965044         1.489178         0.890474
 H         0.085744         2.072155        -0.194125
 H        -2.667101         2.082906        -0.502971
 H        -1.781695         1.827297        -2.012713
