19
Iteration:  1419
 O        -3.971418         0.235922        -1.645989
 C        -2.604507         0.047653        -1.353068
 C        -1.781973        -0.828973        -2.310569
 C        -2.085031        -1.268121        -0.853966
 C        -0.947868        -1.359799         0.160532
 C         0.009784        -0.140534        -0.079734
 O         1.214024        -0.214238        -0.254985
 C        -0.823705         1.378076        -0.100184
 C        -1.976970         1.387683        -0.985130
 H        -4.305975         0.437973        -0.822125
 H        -2.275820        -1.413904        -3.123915
 H        -0.807316        -0.364498        -2.459666
 H        -2.850490        -2.063671        -0.840968
 H        -1.447280        -1.413701         1.105253
 H        -0.616757        -2.401801         0.016453
 H        -1.108185         1.512007         0.900750
 H        -0.009657         2.053505        -0.319136
 H        -2.732541         2.051732        -0.683913
 H        -1.762043         1.933691        -1.910093
