19
Iteration:  4534
 O        -4.081812         0.120947        -1.540381
 C        -2.715224         0.011458        -1.317414
 C        -2.006215        -0.574730        -2.457102
 C        -2.048633        -1.258009        -0.997180
 C        -0.813615        -1.284462        -0.066637
 C         0.073789        -0.095821        -0.122414
 O         1.195010        -0.055321         0.342987
 C        -0.550609         1.156545        -0.689800
 C        -2.039506         1.224370        -0.650520
 H        -4.550855         0.235127        -0.742448
 H        -2.489071        -1.116028        -3.330375
 H        -1.102593        -0.212982        -2.891844
 H        -2.441102        -2.278553        -0.968181
 H        -1.159679        -1.363061         0.926320
 H        -0.204976        -2.116317        -0.128290
 H        -0.110452         2.108814        -0.315209
 H        -0.375163         1.199434        -1.808609
 H        -2.421858         1.373420         0.360692
 H        -2.320004         2.240529        -1.125561
