19
Iteration:   449
 O        -3.997190         0.381939        -1.498511
 C        -2.661757         0.081997        -1.396206
 C        -2.177904        -1.013839        -2.321279
 C        -2.125999        -1.274759        -0.804765
 C        -0.759037        -1.402436        -0.209184
 C        -0.002349         0.001206         0.049015
 O         1.220636         0.021528         0.140469
 C        -0.815817         1.222094        -0.087254
 C        -1.732772         1.227941        -1.330436
 H        -4.332584         0.392348        -0.470911
 H        -2.941216        -1.591065        -2.901680
 H        -1.194906        -0.896831        -2.768635
 H        -2.862679        -1.929116        -0.401778
 H        -0.655468        -1.962805         0.762451
 H        -0.167477        -1.924964        -0.993651
 H        -1.282628         1.482259         0.920740
 H        -0.064004         2.026237        -0.218188
 H        -2.338601         2.139234        -1.630346
 H        -0.993486         0.989862        -2.166137
