19
Iteration:  4837charge 0 multiplicity 1
 O        -4.131709         0.057257        -1.149220
 C        -2.637492         0.094116        -1.285365
 C        -2.320082        -0.706245        -2.482104
 C        -1.953951        -1.224507        -1.085165
 C        -0.476887        -1.400403        -0.643523
 C         0.023360        -0.104327        -0.103789
 O         0.779537        -0.058833         0.940609
 C        -0.355827         1.193785        -0.857405
 C        -1.872104         1.354178        -0.929981
 H        -4.385926         0.722298        -0.544590
 H        -3.099442        -1.202625        -3.063648
 H        -1.384009        -0.317860        -3.169353
 H        -2.603790        -1.938635        -0.622691
 H        -0.320949        -2.282792         0.036507
 H         0.064780        -1.622426        -1.478654
 H        -0.125133         2.107732        -0.459524
 H         0.370891         1.275479        -1.721858
 H        -2.303680         1.869217         0.003642
 H        -2.043319         2.202021        -1.754636
