19
Iteration:  4603
 O        -4.058910         0.090832        -1.273673
 C        -2.642663         0.060982        -1.294668
 C        -2.071460        -0.708001        -2.457023
 C        -2.083350        -1.277817        -1.071043
 C        -0.722940        -1.399270        -0.298339
 C         0.031414        -0.023275        -0.101100
 O         1.036855        -0.111879         0.619780
 C        -0.515813         1.290631        -0.817569
 C        -1.970410         1.431008        -0.886686
 H        -4.432080        -0.719538        -0.872201
 H        -2.680272        -1.070065        -3.173595
 H        -1.088721        -0.590528        -2.879252
 H        -2.841431        -2.021391        -0.818444
 H        -0.721056        -1.776958         0.660191
 H        -0.014363        -2.084836        -0.780644
 H         0.027563         2.078535        -0.176187
 H        -0.012890         1.368725        -1.770914
 H        -2.375438         1.622435         0.063290
 H        -2.377156         2.317244        -1.451097
