19
Iteration:  1527
 O        -4.001180         0.272675        -1.625927
 C        -2.625030         0.061975        -1.404129
 C        -1.962668        -0.928570        -2.318368
 C        -2.144629        -1.281547        -0.877935
 C        -0.796731        -1.399217        -0.004344
 C         0.029770        -0.051639        -0.080639
 O         1.221665        -0.113667        -0.001515
 C        -0.692572         1.233678        -0.173924
 C        -2.017939         1.396694        -1.006260
 H        -4.391590         0.521214        -0.863501
 H        -2.539675        -1.170061        -3.172383
 H        -0.885944        -0.695365        -2.670036
 H        -2.986599        -1.896832        -0.601546
 H        -1.279902        -1.423507         0.991313
 H        -0.163377        -2.296043        -0.235911
 H        -1.114111         1.461864         0.907376
 H         0.114251         1.956221        -0.335464
 H        -2.624913         2.075993        -0.435337
 H        -1.698680         1.817903        -1.970790
