19
Iteration:   880charge 0 multiplicity 1
 O        -3.806042         0.408120        -0.801050
 C        -2.530403        -0.018452        -1.390196
 C        -2.482958        -1.108736        -2.354647
 C        -1.926475        -1.362160        -1.058980
 C        -0.425152        -1.275940        -0.847822
 C        -0.144029         0.033106        -0.031297
 O         0.527222        -0.054633         0.986985
 C        -0.575971         1.360321        -0.552260
 C        -1.629212         1.211720        -1.678341
 H        -3.577877         0.472894         0.197306
 H        -3.292953        -1.813771        -2.716629
 H        -1.932069        -0.857123        -3.245550
 H        -2.559968        -1.937900        -0.380985
 H        -0.097329        -2.127631        -0.228228
 H         0.159451        -1.138348        -1.780636
 H        -1.113761         1.839613         0.286576
 H         0.379554         1.896033        -0.546347
 H        -2.367273         2.071697        -1.670023
 H        -1.148255         1.140997        -2.682691
