19
Iteration:   856
 O        -3.863521         0.294976        -0.840947
 C        -2.629337         0.027904        -1.443427
 C        -2.670163        -1.083596        -2.386538
 C        -1.935183        -1.197090        -1.021626
 C        -0.260059        -1.198129        -0.900655
 C         0.007057         0.059954         0.016792
 O         0.535688        -0.160175         1.152032
 C        -0.592941         1.367484        -0.620185
 C        -1.602701         1.127814        -1.665655
 H        -3.643704         0.664322         0.122335
 H        -3.538972        -1.644713        -2.507888
 H        -2.170278        -1.130166        -3.365367
 H        -2.431922        -1.793829        -0.290110
 H         0.093149        -2.105952        -0.438723
 H         0.247151        -0.901909        -1.864431
 H        -0.889109         1.911121         0.290602
 H         0.340280         1.945931        -0.906559
 H        -2.192588         2.080626        -1.974311
 H        -0.954366         0.840714        -2.535342
