19
Iteration:  4079
 O        -3.970663         0.415100        -1.136402
 C        -2.641457        -0.046688        -1.529962
 C        -2.481298        -1.122772        -2.494204
 C        -1.970446        -1.329010        -0.990048
 C        -0.494444        -1.329373        -0.518904
 C         0.000686         0.025754        -0.031667
 O         1.127552         0.086401         0.545317
 C        -0.884948         1.293099        -0.075275
 C        -1.634957         1.228498        -1.405135
 H        -4.045144         0.133816        -0.271787
 H        -3.388087        -1.774272        -2.759127
 H        -2.041289        -0.878594        -3.391990
 H        -2.792251        -1.849833        -0.512297
 H        -0.410939        -2.045412         0.350784
 H         0.124520        -1.575929        -1.370034
 H        -1.594248         1.168605         0.808845
 H        -0.274479         2.206779         0.121440
 H        -2.391898         2.118443        -1.519136
 H        -0.973840         1.127487        -2.237285
