19
Iteration:   459
 O        -4.012711         0.299903        -1.468525
 C        -2.637958         0.041764        -1.441941
 C        -2.239341        -1.079637        -2.296685
 C        -2.154796        -1.197060        -0.796031
 C        -0.737957        -1.338551        -0.262637
 C         0.011779        -0.070653         0.017783
 O         1.219652         0.014814         0.190217
 C        -0.792537         1.260122        -0.070767
 C        -1.671003         1.288594        -1.357614
 H        -4.380367         0.816058        -0.666379
 H        -2.946115        -1.751433        -2.820821
 H        -1.346016        -0.867723        -2.888256
 H        -2.864245        -1.877157        -0.380876
 H        -0.765388        -2.014982         0.645690
 H        -0.015613        -1.889761        -0.879588
 H        -1.515110         1.219891         0.777389
 H        -0.086712         2.087016         0.000282
 H        -2.190101         2.286027        -1.281443
 H        -1.102741         1.382715        -2.355436
