19
Iteration:   381charge 0 multiplicity 1
 O        -3.924605         0.154993        -1.284713
 C        -2.504312         0.090891        -1.522696
 C        -2.155680        -1.063868        -2.381783
 C        -2.109293        -1.163005        -0.838369
 C        -0.876413        -1.298686         0.092484
 C        -0.028411        -0.080837        -0.014581
 O         1.189865        -0.052968        -0.098599
 C        -0.885921         1.227899        -0.021554
 C        -1.666269         1.434339        -1.412867
 H        -4.253744         0.843183        -1.893689
 H        -2.874906        -1.668266        -2.918646
 H        -1.109002        -0.924279        -2.801686
 H        -2.993340        -1.674277        -0.373356
 H        -1.318022        -1.428163         1.128929
 H        -0.264527        -2.218524        -0.042406
 H        -1.688049         1.030174         0.735756
 H        -0.292642         2.061245         0.306699
 H        -2.340662         2.281326        -1.268090
 H        -0.949764         1.578850        -2.349367
