19
Iteration:    45
 O        -4.059684         0.227630        -1.401192
 C        -2.628460         0.027386        -1.445912
 C        -1.943925        -0.992132        -2.419042
 C        -2.058834        -1.232867        -0.931192
 C        -0.954063        -1.205211         0.116591
 C        -0.004056         0.014013        -0.002290
 O         1.222023        -0.188876        -0.055370
 C        -0.695575         1.310274        -0.115211
 C        -1.808153         1.337000        -1.261264
 H        -4.411335        -0.190847        -0.701704
 H        -2.513426        -1.701207        -2.943579
 H        -1.069748        -0.741284        -3.048285
 H        -2.778644        -2.043902        -0.809615
 H        -1.476969        -1.051229         1.070926
 H        -0.309339        -2.086745         0.177025
 H        -1.284502         1.424482         0.801890
 H        -0.093018         2.198520        -0.158204
 H        -2.553323         2.039818        -0.961891
 H        -1.548294         1.706608        -2.228815
