19
Iteration:  4543charge 0 multiplicity 1
 O        -4.097540         0.194261        -1.518060
 C        -2.723982        -0.004667        -1.317279
 C        -1.984660        -0.580610        -2.458737
 C        -2.014812        -1.297053        -1.045365
 C        -0.846694        -1.292354        -0.066466
 C         0.100955        -0.040206        -0.102717
 O         1.237425        -0.014672         0.388238
 C        -0.534370         1.148816        -0.711175
 C        -2.066423         1.141972        -0.673865
 H        -4.558940         0.034712        -0.724546
 H        -2.852401        -1.155361        -3.068791
 H        -1.117095        -0.098078        -2.951372
 H        -2.781027        -2.089987        -1.112983
 H        -1.273132        -1.319851         0.955776
 H        -0.280433        -2.167567        -0.291995
 H        -0.050106         2.036224        -0.395736
 H        -0.251084         1.036958        -1.833381
 H        -2.411143         1.157285         0.433807
 H        -2.381819         2.059822        -1.218706
