19
Iteration:  3492
 O        -3.933735         0.288272        -1.281571
 C        -2.568494         0.023613        -1.428746
 C        -2.396667        -1.110913        -2.440707
 C        -2.089348        -1.289461        -0.977669
 C        -0.652183        -1.234859        -0.493792
 C         0.017558         0.086173        -0.042678
 O         1.150480         0.042233         0.386353
 C        -0.864733         1.249707        -0.018418
 C        -1.653248         1.254211        -1.317879
 H        -4.230177         0.021158        -0.453370
 H        -3.402621        -1.452794        -2.750504
 H        -1.631370        -0.923969        -3.153942
 H        -2.729265        -1.794290        -0.279754
 H        -0.762305        -1.841842         0.493649
 H         0.133827        -1.867380        -0.967889
 H        -1.360466         0.831517         0.863380
 H        -0.285642         2.137983         0.197925
 H        -2.330354         2.044924        -1.653135
 H        -0.944793         1.104233        -2.125689
