19
Iteration:  1841charge 0 multiplicity 1
 O        -4.117099         0.199987        -1.248017
 C        -2.706791         0.072671        -1.426958
 C        -2.182868        -1.029905        -2.522538
 C        -2.028570        -1.235467        -1.071406
 C        -0.809465        -1.273170        -0.122259
 C         0.112666        -0.000275        -0.045690
 O         1.221338        -0.114567         0.361673
 C        -0.647402         1.282375        -0.191351
 C        -1.753161         1.375070        -1.254427
 H        -4.577992         0.195546        -2.026257
 H        -3.094461        -1.587724        -2.955655
 H        -1.431827        -0.731324        -3.210435
 H        -2.871622        -1.814030        -0.657943
 H        -1.162840        -1.330761         0.910306
 H        -0.134652        -2.084950        -0.401797
 H        -0.955291         1.493157         0.804496
 H         0.108824         2.086095        -0.209980
 H        -2.631307         2.046106        -1.029427
 H        -1.288371         1.341681        -2.209485
