19
Iteration:  2929
 O        -4.073970         0.182172        -1.536218
 C        -2.642321         0.065534        -1.441212
 C        -1.998318        -0.858541        -2.385685
 C        -2.197936        -1.281066        -0.875875
 C        -0.777546        -1.343769         0.003180
 C         0.017860        -0.059876        -0.044953
 O         1.261711        -0.045393        -0.101956
 C        -0.761344         1.253466         0.043807
 C        -1.787272         1.329461        -1.132758
 H        -4.456566         0.179664        -0.699924
 H        -2.660872        -1.413010        -3.159023
 H        -1.097472        -0.472443        -2.803537
 H        -3.082204        -1.984040        -0.734233
 H        -1.055069        -1.321837         1.047723
 H        -0.090841        -2.172875        -0.231850
 H        -1.349949         1.213263         0.923992
 H        -0.210206         2.171019         0.208582
 H        -2.483631         2.160714        -0.996183
 H        -1.313761         1.463961        -2.154016
