19
Iteration:  1921
 O        -3.957719         0.270829        -1.373045
 C        -2.570199         0.049758        -1.458848
 C        -2.223893        -1.083477        -2.377831
 C        -2.153552        -1.212050        -0.871059
 C        -0.805113        -1.342860        -0.228367
 C         0.041190         0.064713        -0.065862
 O         1.239337        -0.045784         0.164340
 C        -0.813504         1.250381        -0.039430
 C        -1.734704         1.320638        -1.186748
 H        -4.308020         0.421494        -2.203251
 H        -3.013791        -1.565257        -2.833160
 H        -1.174422        -1.082244        -2.806355
 H        -2.875670        -1.813444        -0.342569
 H        -0.956061        -1.718746         0.767128
 H        -0.162558        -2.004839        -0.794600
 H        -1.477159         0.975947         0.811430
 H        -0.297124         2.163060         0.132892
 H        -2.466103         2.163117        -1.292389
 H        -1.214487         1.576631        -2.152047
