19
Iteration:  1618charge 0 multiplicity 1
 O        -4.004528         0.319805        -1.509572
 C        -2.651044         0.055550        -1.360275
 C        -1.926208        -0.998971        -2.395839
 C        -2.083675        -1.189574        -0.880415
 C        -0.808220        -1.406552        -0.014573
 C        -0.067056        -0.084751        -0.099070
 O         1.173854        -0.101922        -0.056759
 C        -0.849209         1.291733         0.016360
 C        -1.791549         1.429647        -1.152340
 H        -4.351277        -0.252297        -0.894863
 H        -2.435771        -1.779677        -3.079644
 H        -1.054039        -0.594106        -2.906949
 H        -2.810932        -2.022937        -0.633977
 H        -1.063196        -1.543704         1.020338
 H        -0.379112        -2.326253        -0.429648
 H        -1.285045         1.242330         1.053147
 H         0.008024         2.028073        -0.101977
 H        -2.482045         2.244364        -1.009698
 H        -1.296396         1.638061        -2.128151
