19
Iteration:  1945charge 0 multiplicity 1
 O        -4.065600         0.303862        -1.420088
 C        -2.628949         0.055403        -1.495983
 C        -2.225178        -1.083334        -2.391635
 C        -2.107896        -1.224286        -0.868479
 C        -0.715986        -1.315481        -0.147872
 C         0.037827         0.032381         0.048899
 O         1.290657        -0.007721         0.047432
 C        -0.909969         1.176960         0.126149
 C        -1.655320         1.252678        -1.293617
 H        -4.349548         1.020566        -2.043317
 H        -3.094936        -1.475127        -2.960075
 H        -1.301413        -0.916630        -2.921659
 H        -2.750211        -1.942313        -0.320168
 H        -0.901922        -1.531230         0.896772
 H        -0.039354        -2.044350        -0.591104
 H        -1.672739         1.137344         0.917621
 H        -0.245875         2.070913         0.170116
 H        -2.134960         2.228006        -1.413891
 H        -1.203711         1.260574        -2.294804
