19
Iteration:    75
 O        -4.009832         0.249999        -1.446061
 C        -2.682228         0.111386        -1.395177
 C        -1.833575        -0.877774        -2.255052
 C        -2.117316        -1.227964        -0.799701
 C        -0.888420        -1.352108         0.086811
 C         0.026286        -0.111803        -0.119487
 O         1.221751        -0.118542        -0.005559
 C        -0.777986         1.195197        -0.253363
 C        -1.931170         1.402726        -1.353100
 H        -4.497793        -0.054829        -0.564671
 H        -2.150100        -1.596391        -2.982210
 H        -0.972709        -0.347387        -2.474633
 H        -2.867004        -1.978440        -0.783648
 H        -1.177358        -1.294843         1.182858
 H        -0.300280        -2.246374         0.022965
 H        -1.288967         1.246406         0.751540
 H        -0.063914         2.037162        -0.371590
 H        -2.671857         2.175438        -0.966551
 H        -1.508823         1.557627        -2.328342
