19
Iteration:  3898charge 0 multiplicity 1
 O        -3.778648         0.387236        -0.782722
 C        -2.596411         0.050249        -1.473355
 C        -2.570569        -1.184247        -2.397926
 C        -1.842632        -1.333844        -1.086243
 C        -0.337879        -1.166564        -0.994249
 C        -0.010744        -0.016747         0.029016
 O         0.573519        -0.009115         1.033311
 C        -0.747663         1.312717        -0.454021
 C        -1.673717         1.161334        -1.623058
 H        -3.753261        -0.017797         0.169225
 H        -3.703870        -1.609006        -2.406133
 H        -1.948400        -1.227696        -3.270193
 H        -2.386028        -1.853552        -0.320242
 H         0.182259        -2.023670        -0.508822
 H         0.316974        -1.014688        -1.894817
 H        -1.171452         1.864378         0.426014
 H         0.138436         1.920606        -0.810060
 H        -2.358519         1.949190        -1.498019
 H        -1.256877         1.369789        -2.652154
