19
Iteration:  2942
 O        -4.096543         0.154209        -1.586711
 C        -2.686855         0.087401        -1.442240
 C        -1.973470        -0.907726        -2.315716
 C        -2.067806        -1.159608        -0.838542
 C        -0.864826        -1.269361        -0.057597
 C         0.084913         0.004068        -0.086190
 O         1.263211        -0.163765        -0.087699
 C        -0.832299         1.251785         0.041636
 C        -1.831383         1.347232        -1.100226
 H        -4.439523         0.121853        -0.607963
 H        -2.649503        -1.626652        -2.997455
 H        -1.001628        -0.659866        -2.714529
 H        -2.654940        -2.080543        -0.672157
 H        -0.979135        -1.682808         0.932589
 H        -0.309119        -2.062767        -0.562499
 H        -1.266955         1.142427         1.003142
 H        -0.156136         2.161620        -0.082786
 H        -2.508414         2.203349        -0.854152
 H        -1.204621         1.668488        -1.880053
