19
Iteration:  2029charge 0 multiplicity 1
 O        -3.991515         0.273399        -1.245511
 C        -2.570823         0.109059        -1.500610
 C        -2.163853        -1.026218        -2.491501
 C        -2.044812        -1.280163        -0.947565
 C        -0.827773        -1.353117        -0.032996
 C        -0.029517         0.012596         0.126421
 O         1.165581         0.070969        -0.053480
 C        -0.883814         1.148553         0.057979
 C        -1.590705         1.260923        -1.358187
 H        -4.407311         0.747978        -1.908765
 H        -2.918396        -1.689568        -2.985545
 H        -1.215724        -0.902641        -2.989828
 H        -3.017759        -1.639297        -0.570685
 H        -1.213472        -1.697962         0.962806
 H        -0.127107        -2.171466        -0.263907
 H        -1.769857         1.265012         0.671719
 H        -0.272131         2.027251         0.156339
 H        -2.189012         2.182871        -1.237726
 H        -0.876713         1.190421        -2.087574
