19
Iteration:  2814charge 0 multiplicity 1
 O        -3.993717         0.437523        -1.516652
 C        -2.605934        -0.010180        -1.475933
 C        -2.208057        -1.166497        -2.425472
 C        -2.076251        -1.246788        -0.810644
 C        -0.768906        -1.370277        -0.174080
 C         0.047884         0.006381        -0.050586
 O         1.305687         0.034582         0.035883
 C        -0.884653         1.244957         0.134449
 C        -1.801666         1.276518        -1.213881
 H        -4.171234         0.661055        -0.642393
 H        -3.056622        -1.780316        -2.922460
 H        -1.349435        -1.074937        -2.966921
 H        -2.689782        -2.106930        -0.672081
 H        -0.842107        -1.847651         0.855306
 H        -0.098898        -1.877780        -0.873180
 H        -1.516431         0.932161         1.017433
 H        -0.477568         2.248895         0.471144
 H        -2.705711         1.998034        -1.211130
 H        -1.068888         1.771131        -1.976258
