19
Iteration:  2995charge 0 multiplicity 1
 O        -3.983761         0.250100        -1.632406
 C        -2.655652        -0.004882        -1.334326
 C        -1.983632        -0.988029        -2.355117
 C        -2.140805        -1.256815        -0.871316
 C        -0.821112        -1.348101        -0.109198
 C        -0.020342        -0.062505        -0.086952
 O         1.219535         0.033503        -0.046895
 C        -0.689135         1.209310        -0.108327
 C        -1.939307         1.334881        -0.939192
 H        -4.350578         0.773897        -0.838267
 H        -2.768309        -1.296365        -3.195692
 H        -1.008625        -0.727066        -2.727447
 H        -2.843968        -2.083526        -0.598812
 H        -1.119835        -1.249238         0.947488
 H        -0.249896        -2.286814        -0.119568
 H        -0.961223         1.381979         0.934909
 H         0.159371         1.888566        -0.355030
 H        -2.610131         1.987162        -0.359496
 H        -1.581169         1.742850        -1.980130
