19
Iteration:  4168
 O        -4.092190         0.264349        -1.375159
 C        -2.660934         0.047389        -1.395383
 C        -2.246166        -1.046493        -2.495595
 C        -2.074470        -1.288678        -0.993967
 C        -0.757966        -1.362671        -0.231789
 C         0.171595        -0.001684        -0.024832
 O         1.291389         0.099351         0.267034
 C        -0.755526         1.223111        -0.122920
 C        -1.849866         1.281858        -1.202410
 H        -4.279746         0.340143        -0.477403
 H        -3.170669        -1.287233        -2.868301
 H        -1.449056        -0.788643        -3.250741
 H        -2.673437        -2.097124        -0.581153
 H        -0.761884        -1.829457         0.815076
 H         0.016158        -1.987180        -0.657716
 H        -1.421126         1.180557         0.821140
 H        -0.115558         2.070958        -0.020157
 H        -2.535289         2.168886        -1.110655
 H        -1.276574         1.458841        -2.134577
