19
Iteration:   387charge 0 multiplicity 1
 O        -3.909789         0.176123        -1.241611
 C        -2.515006         0.076770        -1.599238
 C        -2.179942        -1.057159        -2.419371
 C        -2.091105        -1.144110        -0.817253
 C        -0.824762        -1.314033         0.098975
 C        -0.026061        -0.058201        -0.013108
 O         1.190153        -0.069722        -0.078418
 C        -0.906041         1.235375        -0.013576
 C        -1.678883         1.388570        -1.413193
 H        -4.248744         0.632913        -1.991910
 H        -2.885251        -1.610358        -3.087073
 H        -1.240607        -1.054598        -2.875895
 H        -3.021022        -1.529219        -0.433071
 H        -1.229190        -1.243830         1.106104
 H        -0.424640        -2.337312         0.126255
 H        -1.733114         1.017105         0.645190
 H        -0.286394         2.113527         0.298857
 H        -2.286814         2.292597        -1.220841
 H        -1.022256         1.763599        -2.125707
