19
Iteration:  3321charge 0 multiplicity 1
 O        -3.988324         0.193396        -1.601863
 C        -2.571428         0.084006        -1.496277
 C        -2.145128        -1.088336        -2.363667
 C        -2.087224        -1.187013        -0.852985
 C        -0.770599        -1.365056        -0.102873
 C         0.053014        -0.071257         0.051812
 O         1.301390        -0.028951        -0.130860
 C        -0.837321         1.342295         0.140289
 C        -1.900527         1.388611        -1.097732
 H        -4.395125         0.332540        -0.762014
 H        -3.206366        -1.366124        -2.675391
 H        -1.320174        -1.157959        -2.978705
 H        -2.825918        -1.907567        -0.498312
 H        -1.004355        -1.877797         0.823877
 H        -0.136146        -2.127738        -0.595059
 H        -1.458156         1.298654         0.965639
 H        -0.204128         2.262220         0.171419
 H        -2.655852         2.296448        -0.952389
 H        -1.245093         1.655942        -1.932075
