19
Iteration:  3081
 O        -4.028246         0.227883        -1.596109
 C        -2.655072         0.051585        -1.365329
 C        -1.856517        -0.866986        -2.301318
 C        -2.003211        -1.357590        -0.915273
 C        -0.884537        -1.275192         0.076056
 C        -0.012121        -0.032853        -0.072795
 O         1.162514        -0.189274        -0.187776
 C        -0.682988         1.300902        -0.077517
 C        -1.987004         1.409978        -1.032944
 H        -4.497734        -0.198056        -0.932531
 H        -2.371893        -1.455175        -3.038828
 H        -0.879307        -0.508441        -2.613599
 H        -2.870316        -2.041653        -0.761186
 H        -1.323165        -1.319235         1.124438
 H        -0.213469        -2.175074        -0.031433
 H        -1.045681         1.586113         0.982720
 H         0.127028         1.982326        -0.406286
 H        -2.737406         1.846247        -0.411923
 H        -1.919458         2.180495        -1.917321
