19
Iteration:  3061
 O        -3.999382         0.052122        -1.586159
 C        -2.617927         0.145945        -1.365878
 C        -1.853703        -0.820225        -2.377824
 C        -2.219250        -1.238472        -0.853362
 C        -0.957754        -1.336957         0.073455
 C         0.030132        -0.077328        -0.132648
 O         1.212130        -0.090307        -0.133438
 C        -0.640599         1.263980        -0.133004
 C        -1.957168         1.393688        -0.955852
 H        -4.321849        -0.236486        -0.691123
 H        -2.454061        -1.151183        -3.180233
 H        -0.787518        -0.557709        -2.686354
 H        -2.941559        -2.045314        -0.845896
 H        -1.362808        -1.258382         1.107297
 H        -0.493042        -2.326421         0.032224
 H        -0.903217         1.373168         0.942982
 H        -0.003546         2.116675        -0.474104
 H        -2.572073         2.201656        -0.587907
 H        -1.530978         1.799530        -1.976086
