19
Iteration:   134
 O        -4.070126         0.289119        -1.712399
 C        -2.612601         0.029559        -1.451503
 C        -2.114467        -1.210138        -2.274648
 C        -2.170288        -1.280359        -0.822244
 C        -0.797635        -1.179829         0.055806
 C         0.112436         0.036839        -0.091991
 O         1.303084        -0.136908        -0.025000
 C        -0.670958         1.307310        -0.120853
 C        -1.927272         1.317289        -1.052424
 H        -4.318451         1.019746        -1.203146
 H        -3.071792        -1.437875        -2.880816
 H        -1.213560        -1.245149        -2.953524
 H        -2.904231        -1.957951        -0.287804
 H        -1.049737        -1.295098         1.115296
 H        -0.039191        -1.959947        -0.240522
 H        -1.022772         1.177924         0.908973
 H        -0.165321         2.265942        -0.096426
 H        -2.572160         1.936679        -0.515722
 H        -1.757057         2.082539        -1.771067
