19
Iteration:   970
 O        -3.900598         0.451062        -1.082815
 C        -2.574326        -0.041554        -1.413065
 C        -2.533191        -1.166586        -2.428123
 C        -2.023599        -1.322015        -0.930132
 C        -0.485930        -1.288256        -0.779900
 C        -0.057870         0.005047        -0.005321
 O         0.901059         0.032767         0.801211
 C        -0.778469         1.291805        -0.253214
 C        -1.573237         1.178789        -1.533170
 H        -3.929634         1.102299        -0.282822
 H        -3.485378        -1.612178        -2.651485
 H        -1.662968        -1.193429        -3.216191
 H        -2.553549        -1.969768        -0.209503
 H        -0.065719        -2.164002        -0.224628
 H        -0.076973        -1.103105        -1.788858
 H        -1.373678         1.416016         0.669497
 H        -0.015728         2.055474        -0.217054
 H        -2.262161         1.956169        -1.844296
 H        -0.834986         1.166232        -2.379970
