19
Iteration:  4320
 O        -3.917479         0.130765        -1.754585
 C        -2.493728         0.101916        -1.420400
 C        -1.906057        -0.917748        -2.250472
 C        -2.144182        -1.278840        -0.813610
 C        -0.827262        -1.374981         0.152118
 C        -0.076908        -0.067801        -0.065087
 O         1.058938         0.019735        -0.537314
 C        -0.788525         1.237000         0.212421
 C        -1.889052         1.393374        -0.933282
 H        -4.294171         0.204102        -0.919363
 H        -2.574517        -1.209217        -3.098016
 H        -0.888338        -1.006227        -2.403778
 H        -2.999473        -1.794321        -0.335243
 H        -0.939696        -1.509610         1.164296
 H        -0.168736        -2.150304        -0.249764
 H        -1.222519         1.263250         1.221521
 H        -0.039233         1.964388         0.100026
 H        -2.781808         2.064115        -0.533412
 H        -1.409595         1.926880        -1.690122
