19
Iteration:  4800
 O        -3.989911         0.170490        -0.982112
 C        -2.611736         0.087530        -1.281019
 C        -2.250235        -0.722161        -2.588799
 C        -1.953261        -1.278878        -1.175781
 C        -0.563748        -1.422156        -0.596260
 C        -0.009757        -0.035345        -0.096959
 O         0.730822        -0.084038         0.956127
 C        -0.417752         1.240199        -0.838886
 C        -1.879259         1.347830        -1.048680
 H        -4.244176        -0.366638        -0.275010
 H        -3.027362        -1.170411        -3.227594
 H        -1.362020        -0.506089        -3.030247
 H        -2.734282        -1.939688        -0.744601
 H        -0.428756        -2.182340         0.124102
 H         0.153091        -1.614927        -1.465763
 H        -0.126341         2.193429        -0.263444
 H        -0.073452         1.110017        -1.914052
 H        -2.252482         1.745695        -0.134141
 H        -2.106935         2.021904        -1.894362
