19
Iteration:   554
 O        -3.878061         0.489186        -1.075906
 C        -2.627424         0.027071        -1.510682
 C        -2.382674        -1.059359        -2.492230
 C        -2.056902        -1.298328        -0.999738
 C        -0.645704        -1.302163        -0.424018
 C        -0.045082         0.025710         0.053916
 O         1.094595         0.016508         0.472383
 C        -0.885630         1.298639        -0.150237
 C        -1.570551         1.091709        -1.473105
 H        -4.355548        -0.161079        -0.582826
 H        -3.339399        -1.593092        -2.747096
 H        -1.574375        -1.005280        -3.243051
 H        -2.711687        -2.000165        -0.441766
 H        -0.587203        -1.878650         0.522582
 H         0.064087        -1.848242        -1.072312
 H        -1.697990         1.325148         0.605347
 H        -0.275010         2.196122        -0.111402
 H        -2.145842         1.928215        -1.839811
 H        -0.835190         0.841652        -2.257912
