19
Iteration:  1135
 O        -4.013465         0.374338        -1.418702
 C        -2.678180         0.074459        -1.425245
 C        -2.243053        -1.049366        -2.399768
 C        -2.027716        -1.331794        -0.948934
 C        -0.731363        -1.342790        -0.255226
 C        -0.017645         0.032556         0.037509
 O         1.175138        -0.008140         0.217653
 C        -0.812144         1.281709        -0.049640
 C        -1.671906         1.207937        -1.291529
 H        -4.377687         0.542824        -0.431226
 H        -3.197457        -1.605631        -2.729356
 H        -1.341817        -0.901387        -2.960601
 H        -2.694195        -2.082670        -0.532057
 H        -0.871358        -1.887113         0.681310
 H        -0.027241        -1.871245        -0.864676
 H        -1.456933         1.432028         0.794378
 H         0.031759         1.939274         0.007288
 H        -2.145882         2.167472        -1.474120
 H        -0.887370         1.219689        -2.077919
