19
Iteration:  1592
 O        -4.025824         0.241550        -1.543073
 C        -2.652923         0.121832        -1.420191
 C        -1.927463        -0.868810        -2.286761
 C        -2.175630        -1.304408        -0.896351
 C        -0.852641        -1.377780         0.004899
 C         0.008243        -0.061064        -0.020844
 O         1.259547        -0.114203        -0.026519
 C        -0.796757         1.234865        -0.136068
 C        -1.822545         1.387507        -1.155832
 H        -4.059190         0.005080        -0.600742
 H        -2.567935        -1.162012        -3.105717
 H        -1.019381        -0.392015        -2.726052
 H        -2.926401        -2.058492        -0.805505
 H        -1.200423        -1.449613         1.094511
 H        -0.297109        -2.312553        -0.239390
 H        -1.291638         1.048460         0.784533
 H        -0.187700         2.062576        -0.308836
 H        -2.578604         2.079522        -0.729357
 H        -1.534118         1.832226        -2.125251
