19
Iteration:   470
 O        -4.077409         0.237470        -1.420248
 C        -2.591218         0.110697        -1.498382
 C        -2.302584        -1.173171        -2.334565
 C        -2.117733        -1.192181        -0.809607
 C        -0.687126        -1.307271        -0.274915
 C         0.042171        -0.005906        -0.034699
 O         1.225160        -0.037042         0.263571
 C        -0.795178         1.213243        -0.076493
 C        -1.634491         1.364086        -1.366300
 H        -4.104963         1.024017        -0.989214
 H        -3.257053        -1.604439        -2.746912
 H        -1.387072        -1.212422        -2.919202
 H        -2.933750        -1.638128        -0.291665
 H        -0.769652        -1.736118         0.772943
 H        -0.162735        -1.966985        -0.962941
 H        -1.606672         1.131811         0.667315
 H        -0.265533         2.095201         0.263532
 H        -2.408103         2.131727        -1.105990
 H        -0.993788         1.729930        -2.238866
