19
Iteration:  4167charge 0 multiplicity 1
 O        -4.089697         0.262756        -1.374350
 C        -2.663568         0.032519        -1.403139
 C        -2.255059        -1.037123        -2.505550
 C        -2.075649        -1.290810        -0.988938
 C        -0.752525        -1.365216        -0.228899
 C         0.172024         0.007124        -0.031046
 O         1.284466         0.094650         0.271879
 C        -0.757189         1.230177        -0.117310
 C        -1.832747         1.280608        -1.206737
 H        -4.286647         0.365916        -0.436313
 H        -3.207474        -1.309741        -2.856560
 H        -1.441937        -0.805384        -3.226860
 H        -2.681963        -2.101131        -0.595183
 H        -0.749600        -1.837207         0.802144
 H         0.046454        -1.990923        -0.655056
 H        -1.408370         1.194994         0.838230
 H        -0.098264         2.104913        -0.022134
 H        -2.546081         2.185925        -1.106571
 H        -1.325713         1.469302        -2.120492
