19
Iteration:   982charge 0 multiplicity 1
 O        -3.878553         0.435092        -1.136136
 C        -2.557591         0.068524        -1.503211
 C        -2.511825        -1.194570        -2.315223
 C        -1.991411        -1.393295        -0.945062
 C        -0.504075        -1.239046        -0.669922
 C         0.005614        -0.036958         0.010184
 O         0.910807        -0.006656         0.735274
 C        -0.806492         1.247723        -0.211682
 C        -1.676698         1.254016        -1.567413
 H        -3.683626         1.143187        -0.371853
 H        -3.467554        -1.558625        -2.565490
 H        -1.858369        -1.238845        -3.300138
 H        -2.691816        -1.829259        -0.237516
 H         0.100307        -2.121000        -0.318338
 H        -0.007315        -1.312110        -1.663639
 H        -1.542689         1.279543         0.622653
 H        -0.237666         2.157094        -0.152186
 H        -2.152346         2.202224        -1.466022
 H        -1.035448         1.224967        -2.475106
