19
Iteration:  2634charge 0 multiplicity 1
 C         3.157248         3.065119        -3.309384
 C         2.060392         2.560241        -2.368727
 C         2.449113         2.250392        -0.904400
 C         1.227176         1.677934        -0.317071
 C         0.761233         0.709129        -1.467670
 C         1.067285         1.576302        -2.727337
 O         0.750251         3.011792        -2.532380
 C         1.520846         0.904675         0.846218
 O         0.894453         0.817495         1.871949
 H         3.493170         4.036071        -2.835927
 H         4.060498         2.416278        -3.168717
 H         2.875538         3.132223        -4.341930
 H         3.359621         1.563100        -0.793648
 H         3.014303         3.093981        -0.332520
 H         0.467999         2.510550        -0.092662
 H         1.190451        -0.291370        -1.451076
 H        -0.392899         0.586058        -1.300652
 H         0.844603         1.181240        -3.737581
 H         2.401744         0.200675         0.646027
