19
Iteration:  4187
 C         3.189301         3.441178        -2.950510
 C         2.081599         2.555036        -2.245460
 C         2.060703         2.521942        -0.762966
 C         0.810145         1.641205        -0.430844
 C         0.967308         0.582558        -1.505704
 C         1.328242         1.410535        -2.727968
 O         0.762827         2.719643        -2.851911
 C         1.018879         1.326981         1.056213
 O         1.594822         0.354589         1.555671
 H         2.957125         4.461261        -2.642767
 H         4.113767         3.210965        -2.509918
 H         3.163649         3.233695        -4.121843
 H         2.908809         1.766816        -0.319231
 H         2.071117         3.523122        -0.321311
 H        -0.014538         2.434022        -0.454085
 H         1.713501        -0.202223        -1.461817
 H        -0.083596         0.125421        -1.686735
 H         1.732305         0.883378        -3.604389
 H         0.815381         2.211636         1.689409
