19
Iteration:  3767charge 0 multiplicity 1
 C         3.188984         3.357074        -2.902110
 C         2.141231         2.537414        -2.222452
 C         1.986693         2.707699        -0.714869
 C         0.838109         1.787662        -0.327252
 C         0.605925         0.706046        -1.506383
 C         1.382574         1.303163        -2.653060
 O         0.852167         2.623411        -3.042998
 C         0.916957         1.060654         1.088210
 O         1.927529         0.463175         1.433442
 H         3.180387         4.289396        -2.241677
 H         4.234631         3.019147        -2.530340
 H         3.095548         3.501793        -3.970169
 H         2.808573         2.551182        -0.165638
 H         1.790634         3.698948        -0.311470
 H        -0.071057         2.490801        -0.231978
 H         0.920624        -0.359479        -1.418338
 H        -0.410041         0.749554        -1.854729
 H         1.875754         0.761034        -3.418237
 H        -0.031575         0.984636         1.759029
