19
Iteration:  4343charge 0 multiplicity 1
 C         3.162131         3.345052        -2.968402
 C         2.045396         2.666764        -2.308945
 C         1.876679         2.924929        -0.789913
 C         0.930742         1.760855        -0.268002
 C         0.870317         0.683071        -1.431462
 C         1.387026         1.399781        -2.698828
 O         0.846335         2.598107        -3.079234
 C         1.507767         1.155088         1.126473
 O         1.233649         0.058544         1.569708
 H         3.307846         4.415822        -2.547925
 H         4.225425         3.033762        -2.700234
 H         3.065716         3.434247        -4.018639
 H         2.766057         2.874509        -0.186947
 H         1.524997         3.845403        -0.619855
 H        -0.052752         2.186159         0.005441
 H         1.379998        -0.189926        -1.270798
 H        -0.137860         0.294731        -1.539192
 H         1.804498         0.984568        -3.622233
 H         2.041672         1.962251         1.734491
