19
Iteration:  2099
 C         3.386592         2.522387        -3.010924
 C         2.066278         2.568594        -2.278703
 C         2.089345         2.862041        -0.704470
 C         0.901628         1.907621        -0.178510
 C         0.344199         1.091614        -1.407844
 C         0.976571         1.606706        -2.752407
 O         0.893040         3.017625        -2.973157
 C         1.588895         0.694656         0.636448
 O         1.517594         0.392291         1.804344
 H         3.867096         3.514554        -2.978657
 H         4.034511         1.935609        -2.490210
 H         3.165377         2.268510        -4.093127
 H         3.158118         2.554989        -0.265058
 H         2.006375         3.936320        -0.568277
 H         0.189643         2.345061         0.476590
 H         0.479684         0.090197        -1.035777
 H        -0.841118         1.198589        -1.421576
 H         1.291060         0.944940        -3.522663
 H         2.409175         0.221733        -0.017417
