19
Iteration:  3492charge 0 multiplicity 1
 C         3.422623         2.927424        -2.832343
 C         2.031188         2.467898        -2.164421
 C         1.782097         2.635062        -0.668809
 C         0.755315         1.571642        -0.310414
 C         0.325061         0.697433        -1.706171
 C         1.202771         1.509298        -2.748349
 O         0.887103         2.921250        -2.925455
 C         1.581572         0.744696         0.653749
 O         1.742621         1.018536         1.840803
 H         3.617367         3.976335        -2.727197
 H         4.323916         2.454686        -2.362520
 H         3.432018         2.828054        -3.844981
 H         2.764882         2.414085        -0.259847
 H         1.462654         3.755206        -0.527382
 H        -0.081926         2.002826         0.188370
 H         0.574357        -0.346824        -1.532706
 H        -0.702943         0.959348        -1.702701
 H         1.556663         0.875661        -3.606181
 H         2.348557         0.023542         0.080501
