19
Iteration:  2991charge 0 multiplicity 1
 C         3.444211         2.787641        -2.878125
 C         2.109024         2.464068        -2.185715
 C         1.754156         2.838425        -0.723204
 C         0.716725         1.790515        -0.167106
 C         0.156523         1.115294        -1.420833
 C         1.126636         1.462480        -2.584952
 O         1.039768         2.794730        -3.091415
 C         1.696898         0.760676         0.518993
 O         1.721355         0.544333         1.731300
 H         3.496649         3.921991        -2.810695
 H         4.424038         2.317371        -2.588710
 H         3.307998         2.488449        -3.885811
 H         2.653090         3.044606         0.043940
 H         1.402807         3.832865        -0.827816
 H         0.081168         2.227857         0.686061
 H        -0.032785         0.047155        -1.326758
 H        -0.706759         1.724228        -1.672755
 H         1.255807         0.699059        -3.382504
 H         2.477164         0.242940        -0.158675
