19
Iteration:  2253charge 0 multiplicity 1
 C         3.455478         2.560076        -2.986344
 C         2.129432         2.403018        -2.220729
 C         1.956602         2.761970        -0.724471
 C         0.877311         1.758611        -0.116783
 C         0.148230         1.236463        -1.402419
 C         0.993962         1.603015        -2.595484
 O         0.946166         3.009534        -3.029479
 C         1.800931         0.832252         0.587160
 O         1.538731         0.398195         1.710619
 H         3.626563         3.627623        -3.082689
 H         4.246841         2.022437        -2.574387
 H         3.376487         2.257869        -4.036693
 H         2.888362         2.926763        -0.063934
 H         1.526048         3.796688        -0.795521
 H         0.120246         2.281131         0.474196
 H        -0.123097         0.178302        -1.422640
 H        -0.870759         1.765699        -1.550871
 H         0.953589         0.855023        -3.350379
 H         2.736271         0.504002         0.040317
