19
Iteration:   411
 C         3.174639         2.070361        -3.402361
 C         2.129868         2.425481        -2.429805
 C         2.543419         2.404876        -0.876380
 C         1.214478         1.896193        -0.087671
 C         0.114467         1.672970        -1.164668
 C         0.823557         1.941805        -2.543920
 O         1.097193         3.397179        -2.740052
 C         1.581638         0.610358         0.657180
 O         1.161973         0.250125         1.741277
 H         4.154425         2.632719        -3.220522
 H         3.379060         1.015284        -3.181283
 H         2.904779         2.283161        -4.460260
 H         3.417654         1.876702        -0.622610
 H         2.817378         3.399601        -0.573355
 H         0.849573         2.659509         0.612154
 H        -0.269466         0.653226        -1.199297
 H        -0.731692         2.278369        -0.843866
 H         0.509164         1.285225        -3.472224
 H         2.409808        -0.081984         0.147901
