19
Iteration:  3928charge 0 multiplicity 1
 C         3.201534         3.445909        -2.926079
 C         2.058757         2.589486        -2.255032
 C         1.915335         2.784493        -0.771738
 C         0.818878         1.834320        -0.323239
 C         0.755531         0.623561        -1.369281
 C         1.487358         1.293783        -2.597556
 O         0.834317         2.543012        -2.959496
 C         1.207131         1.308088         1.074407
 O         1.558019         0.182975         1.309777
 H         3.388292         4.347650        -2.356279
 H         4.272424         3.044865        -2.924607
 H         3.009622         3.480291        -3.972184
 H         2.947965         2.576884        -0.252746
 H         1.618727         3.853624        -0.434791
 H        -0.172354         2.281672        -0.315985
 H         1.192472        -0.330627        -1.032215
 H        -0.245461         0.328111        -1.650606
 H         1.596639         0.606735        -3.404936
 H         1.357470         2.217841         1.771379
