19
Iteration:  2419charge 0 multiplicity 1
 C         3.417733         2.803202        -3.161790
 C         2.162428         2.454206        -2.340099
 C         2.155689         2.743573        -0.896852
 C         1.159631         1.793642        -0.192587
 C         0.409925         0.950967        -1.338445
 C         1.033351         1.578009        -2.558244
 O         0.776120         3.068048        -2.825969
 C         1.640628         0.704128         0.705721
 O         1.166467         0.514270         1.757935
 H         3.619228         3.904321        -3.308692
 H         4.128153         2.105569        -2.722751
 H         3.213378         2.396100        -4.110941
 H         3.209467         2.540103        -0.547165
 H         2.099977         3.872123        -0.671765
 H         0.499123         2.399784         0.532733
 H         0.441859        -0.169973        -1.323691
 H        -0.704917         1.211601        -1.131932
 H         0.976644         0.814965        -3.401043
 H         2.248472        -0.108931         0.192793
