19
Iteration:  3441
 C         3.341735         3.138811        -2.988816
 C         2.066967         2.566789        -2.319390
 C         2.031455         2.685535        -0.831463
 C         0.951068         1.625550        -0.339350
 C         0.460775         0.841196        -1.546107
 C         1.228918         1.439549        -2.681901
 O         0.804034         2.772717        -2.968984
 C         1.480296         0.694979         0.800030
 O         1.464576         0.787558         2.006601
 H         3.641831         4.160218        -2.566877
 H         4.231239         2.477955        -2.740661
 H         3.391703         3.197629        -4.175498
 H         3.175663         2.614935        -0.562194
 H         1.832498         3.698973        -0.474349
 H         0.135929         2.180548         0.122790
 H         0.724874        -0.211969        -1.353852
 H        -0.653366         1.069850        -1.621754
 H         1.206936         0.818316        -3.599758
 H         1.851949        -0.270053         0.288611
