19
Iteration:  3572
 C         3.417652         2.955869        -2.729436
 C         2.095055         2.561841        -2.191729
 C         1.676219         2.763395        -0.723091
 C         0.724918         1.595306        -0.277314
 C         0.355352         0.889689        -1.585008
 C         1.255199         1.445103        -2.767695
 O         0.873880         2.803663        -3.120793
 C         1.455529         0.698138         0.707781
 O         1.959169         0.865939         1.822165
 H         3.476505         4.011453        -2.463959
 H         4.204002         2.386093        -2.351219
 H         3.432956         2.876060        -3.752966
 H         2.658643         2.736254        -0.088341
 H         1.222624         3.710375        -0.722061
 H        -0.055547         1.968257         0.290540
 H         0.264902        -0.146790        -1.447240
 H        -0.702978         1.058480        -1.802918
 H         1.587525         0.805269        -3.531461
 H         1.417775        -0.414584         0.465946
