19
Iteration:  1165charge 0 multiplicity 1
 C         3.329395         2.477642        -3.280796
 C         2.126799         2.428915        -2.390635
 C         2.349363         2.446279        -0.882607
 C         1.195704         1.673191        -0.234461
 C         0.267823         1.218456        -1.418546
 C         0.822765         1.811052        -2.728286
 O         0.989053         3.230768        -2.618944
 C         1.656049         0.674932         0.782075
 O         1.109448         0.611372         1.888292
 H         3.886197         3.413708        -3.092069
 H         4.113161         1.630778        -3.454206
 H         2.900222         2.745109        -4.291810
 H         3.394883         1.962130        -0.660045
 H         2.491547         3.495458        -0.480258
 H         0.598201         2.409404         0.340727
 H         0.401612         0.107675        -1.429125
 H        -0.824391         1.444431        -1.173115
 H         0.663079         1.358514        -3.715197
 H         2.390392        -0.183625         0.527650
