19
Iteration:  2231
 C         3.485642         2.568832        -2.928667
 C         2.086839         2.478946        -2.222606
 C         1.942173         2.883623        -0.804858
 C         0.978887         1.871992        -0.195096
 C         0.147638         1.206616        -1.364340
 C         0.974033         1.520672        -2.603880
 O         0.948228         2.936485        -2.877514
 C         1.706601         0.704934         0.504265
 O         1.533463         0.443395         1.649701
 H         3.766352         3.590038        -3.189297
 H         4.188512         2.109248        -2.325804
 H         3.604131         2.052790        -3.900707
 H         3.004858         2.899452        -0.361696
 H         1.597785         3.945286        -0.698923
 H         0.293112         2.363159         0.525459
 H         0.006255         0.153005        -1.153113
 H        -0.945275         1.568282        -1.316288
 H         0.989138         0.860045        -3.426072
 H         2.504799         0.160484        -0.101103
