19
Iteration:  2355
 C         3.426567         2.759281        -3.152667
 C         2.121766         2.501432        -2.297445
 C         2.078099         2.742318        -0.720682
 C         0.931758         1.810358        -0.144655
 C         0.215197         1.227980        -1.410508
 C         0.999304         1.573808        -2.611129
 O         0.936018         2.893266        -2.940802
 C         1.654764         0.828320         0.674754
 O         1.437296         0.349913         1.779607
 H         3.887707         3.697091        -3.280139
 H         4.197934         2.135047        -2.715638
 H         3.200078         2.325756        -4.061019
 H         3.007677         2.316152        -0.239799
 H         2.164781         3.872083        -0.359259
 H         0.141723         2.224821         0.532736
 H         0.066508         0.125214        -1.287246
 H        -0.797080         1.413619        -1.748788
 H         1.011061         0.820507        -3.464016
 H         2.590745         0.464284         0.179996
