19
Iteration:  4982
 C         3.458956         2.923915        -2.262637
 C         2.046397         2.552783        -2.086557
 C         1.234646         3.152825        -0.880624
 C         0.642151         1.920271        -0.179432
 C         0.247001         0.934644        -1.369644
 C         1.346360         1.301240        -2.450530
 O         0.989601         2.417205        -3.230015
 C         1.683417         1.291194         0.866607
 O         2.161529         0.178134         0.800678
 H         3.518738         3.987289        -1.959577
 H         3.843016         2.238121        -1.540081
 H         3.799054         2.565721        -3.299428
 H         1.706696         3.865873        -0.280008
 H         0.231637         3.858351        -1.095978
 H        -0.232970         2.230695         0.382974
 H         0.493105        -0.188469        -1.013597
 H        -0.814401         0.974486        -1.723830
 H         1.955594         0.655403        -3.002702
 H         1.781947         1.943174         1.733629
