19
Iteration:  1650charge 0 multiplicity 1
 C         3.372015         2.397767        -3.124957
 C         2.122046         2.469768        -2.266390
 C         1.978355         2.861624        -0.781015
 C         0.952227         1.902571        -0.071435
 C         0.277892         1.300211        -1.327018
 C         0.975990         1.668896        -2.591989
 O         0.967692         3.081356        -2.956102
 C         1.730309         0.741299         0.623178
 O         1.426544         0.270036         1.694240
 H         3.745266         3.431774        -3.592408
 H         4.178471         2.014879        -2.453371
 H         3.233452         1.734693        -3.973938
 H         2.961822         2.766355        -0.239803
 H         1.586407         3.837118        -0.580942
 H         0.331778         2.482723         0.584039
 H         0.462597         0.125429        -1.245660
 H        -0.869227         1.332701        -1.385076
 H         1.324027         0.891857        -3.328202
 H         2.406327         0.267176        -0.092046
