19
Iteration:  3206
 C         3.182047         3.083048        -3.369849
 C         2.105394         2.565613        -2.332775
 C         2.388925         2.443143        -0.848696
 C         1.154076         1.666239        -0.326631
 C         0.719231         0.725380        -1.466709
 C         1.150893         1.565340        -2.670084
 O         0.746368         2.977255        -2.654363
 C         1.609905         0.981340         0.966664
 O         0.878737         0.550052         1.852039
 H         3.311706         4.131537        -3.256731
 H         4.028798         2.393959        -3.248305
 H         2.643581         2.741785        -4.332920
 H         3.374789         2.080018        -0.681598
 H         2.336566         3.479997        -0.363619
 H         0.357138         2.339451        -0.158448
 H         1.320108        -0.176159        -1.595250
 H        -0.360092         0.633200        -1.453285
 H         1.127003         1.103374        -3.698173
 H         2.686055         1.083392         1.245267
