19
Iteration:  4552charge 0 multiplicity 1
 C         3.026883         3.617101        -3.097506
 C         2.096703         2.634839        -2.290104
 C         2.263964         2.561641        -0.798342
 C         0.929066         1.691011        -0.425557
 C         1.033608         0.561298        -1.489663
 C         1.519370         1.370256        -2.702741
 O         0.737338         2.574631        -2.707112
 C         1.009952         1.305185         1.025559
 O         1.295075         0.257991         1.592522
 H         3.213550         4.572306        -2.564397
 H         4.078938         3.241899        -3.167171
 H         2.566849         3.761560        -3.992080
 H         3.164390         2.039630        -0.415859
 H         2.387705         3.499987        -0.257493
 H        -0.030942         2.278534        -0.570963
 H         1.722408        -0.212400        -1.238634
 H         0.041997         0.079954        -1.556582
 H         1.661765         0.970319        -3.746954
 H         0.688568         2.130706         1.709718
