19
Iteration:   190
 C         3.413010         2.269951        -3.163183
 C         2.194945         2.249087        -2.325460
 C         2.407251         2.006155        -0.875713
 C         1.048737         1.977817        -0.195360
 C         0.134805         1.420936        -1.361933
 C         0.769411         1.912964        -2.627465
 O         1.009800         3.334134        -2.428995
 C         1.054029         1.238276         0.999014
 O         1.759198         0.214801         1.149203
 H         4.079155         3.024865        -2.712859
 H         3.934505         1.256135        -3.242032
 H         3.138230         2.492860        -4.238555
 H         3.132805         1.168402        -0.779293
 H         2.935202         2.821405        -0.359173
 H         0.709275         3.018261        -0.050200
 H         0.174042         0.380994        -1.379361
 H        -0.875524         1.810252        -1.272344
 H         0.435019         1.548039        -3.677904
 H         0.356804         1.408821         1.813738
