19
Iteration:  4662charge 0 multiplicity 1
 C         3.200085         3.306853        -2.890704
 C         2.105819         2.564075        -2.150053
 C         1.714073         2.977623        -0.808275
 C         0.795820         1.831255        -0.192131
 C         0.704977         0.744280        -1.342084
 C         1.478172         1.308151        -2.537451
 O         0.928336         2.529171        -3.020499
 C         1.387574         1.285779         1.073105
 O         1.544770         0.057150         1.126848
 H         2.867701         4.363391        -2.943554
 H         4.235748         3.220177        -2.461998
 H         3.120634         2.997712        -3.860225
 H         2.695602         2.976612        -0.178900
 H         1.211848         4.069484        -0.856363
 H        -0.177852         2.391619        -0.046120
 H         1.302320        -0.228287        -1.042698
 H        -0.372113         0.462234        -1.580785
 H         1.835467         0.746917        -3.406151
 H         1.655520         1.975227         1.851658
