19
Iteration:  1198charge 0 multiplicity 1
 C         3.272170         2.725248        -3.404296
 C         2.160514         2.531417        -2.379614
 C         2.501690         2.155157        -0.886130
 C         1.179722         1.671645        -0.279878
 C         0.368395         1.159635        -1.429151
 C         0.944212         1.717721        -2.702984
 O         0.934015         3.198234        -2.598797
 C         1.416657         0.673691         0.848529
 O         1.132108         0.750789         1.979862
 H         3.802241         3.651084        -3.124883
 H         4.000095         1.884959        -3.714911
 H         2.653529         3.021088        -4.315300
 H         3.190107         1.238672        -0.950971
 H         2.935822         2.929858        -0.211913
 H         0.567865         2.498829         0.129067
 H         0.314541         0.049020        -1.383658
 H        -0.715313         1.443806        -1.301249
 H         0.799743         1.374589        -3.712172
 H         1.842701        -0.261525         0.341725
