19
Iteration:  3393
 C         3.191131         3.070914        -3.247772
 C         2.087468         2.609118        -2.322000
 C         2.202996         2.586263        -0.788925
 C         1.052651         1.635124        -0.310607
 C         0.667541         0.695329        -1.520295
 C         1.185127         1.544621        -2.703040
 O         0.795227         2.895739        -2.778552
 C         1.566996         0.774456         0.828304
 O         1.090590         0.762816         1.955195
 H         3.415254         4.130969        -3.317668
 H         4.187559         2.516437        -3.069140
 H         2.947545         2.745586        -4.206004
 H         3.253376         2.284572        -0.288298
 H         2.031784         3.599233        -0.170314
 H         0.175694         2.142343         0.093110
 H         1.281091        -0.212375        -1.490494
 H        -0.386801         0.567174        -1.519508
 H         1.438988         1.054459        -3.650124
 H         2.591579         0.260550         0.602927
