19
Iteration:   821
 C         3.414964         2.205133        -2.968630
 C         2.069372         2.338547        -2.263615
 C         2.223972         2.598936        -0.766611
 C         0.990678         1.800587        -0.142184
 C        -0.009609         1.598239        -1.378320
 C         0.747999         1.789746        -2.674733
 O         1.109590         3.198594        -2.890914
 C         1.496392         0.585393         0.514343
 O         1.744358         0.492010         1.724506
 H         3.898415         3.228367        -2.958753
 H         4.168757         1.451267        -2.513700
 H         3.247489         1.823974        -4.062607
 H         3.095058         2.346960        -0.193854
 H         1.949947         3.697729        -0.692727
 H         0.438618         2.337586         0.675064
 H        -0.423685         0.563374        -1.359111
 H        -0.889702         2.255333        -1.259418
 H         0.585448         1.145485        -3.566594
 H         1.654330        -0.278858        -0.221170
