19
Iteration:  2271charge 0 multiplicity 1
 C         3.384893         2.563276        -2.963905
 C         2.070047         2.548565        -2.254675
 C         1.932641         2.887210        -0.758584
 C         0.954909         1.818319        -0.180760
 C         0.094092         1.230418        -1.438628
 C         0.974929         1.547483        -2.706067
 O         1.029323         2.962052        -3.029850
 C         1.750504         0.763209         0.671183
 O         1.576100         0.326474         1.820941
 H         3.748497         3.608612        -2.928784
 H         4.079920         1.752054        -2.553465
 H         3.105826         2.328751        -4.065619
 H         2.827835         2.547285        -0.271853
 H         1.736289         3.860866        -0.486308
 H         0.313432         2.242035         0.553300
 H        -0.006965         0.140745        -1.349242
 H        -0.821042         1.781813        -1.580004
 H         1.257980         0.916128        -3.525941
 H         2.708003         0.509563         0.153970
