19
Iteration:  2410
 C         3.429573         2.757568        -3.153707
 C         2.159684         2.524189        -2.356648
 C         2.207477         2.739561        -0.829424
 C         1.175305         1.767245        -0.225597
 C         0.332025         1.041944        -1.273227
 C         0.976787         1.603710        -2.573140
 O         0.771716         3.002176        -2.891097
 C         1.668210         0.655185         0.659211
 O         1.173036         0.502627         1.805403
 H         3.561009         3.800906        -3.215020
 H         4.346467         2.391904        -2.710953
 H         3.409495         2.430052        -4.153223
 H         3.208611         2.688696        -0.343201
 H         1.698158         3.775124        -0.717892
 H         0.533377         2.358654         0.422311
 H         0.678499         0.001700        -1.195982
 H        -0.719900         1.174329        -1.381092
 H         0.982391         0.984497        -3.486815
 H         2.360266        -0.144701         0.215077
