19
Iteration:  4913
 C         3.474494         2.810349        -2.326043
 C         2.044198         2.525666        -1.971948
 C         1.315814         3.094908        -0.804255
 C         0.504570         1.841525        -0.263055
 C         0.228491         0.871827        -1.326645
 C         1.324840         1.281470        -2.389933
 O         1.036111         2.506043        -3.072895
 C         1.491141         1.284704         0.761010
 O         2.298216         0.379003         0.647928
 H         3.443063         3.892669        -2.661020
 H         4.034655         2.830934        -1.297708
 H         4.117694         2.223694        -3.006225
 H         1.980901         3.691804        -0.109735
 H         0.647320         3.830843        -1.409899
 H        -0.278453         2.267664         0.356315
 H         0.315305        -0.203745        -1.009249
 H        -0.760657         0.941575        -1.791355
 H         1.684305         0.430532        -3.070156
 H         1.471767         1.992359         1.631201
