19
Iteration:   105
 C         3.249997         2.511198        -3.465913
 C         2.165705         2.441504        -2.381267
 C         2.587267         2.278336        -0.963921
 C         1.271032         1.889834        -0.177730
 C         0.432906         1.200911        -1.229893
 C         0.933397         1.761728        -2.515632
 O         0.986699         3.270066        -2.462088
 C         1.405689         1.181314         1.139208
 O         0.870969         0.100310         1.241465
 H         3.805601         3.500221        -3.496530
 H         3.965978         1.689793        -3.237046
 H         2.870364         2.245670        -4.414382
 H         3.535615         1.595813        -0.738313
 H         2.905011         3.261099        -0.502271
 H         0.779579         2.885195        -0.031203
 H         0.315409        -0.019021        -1.249402
 H        -0.614790         1.612004        -1.061580
 H         0.606116         1.199694        -3.464265
 H         2.116743         1.534139         1.894575
