19
Iteration:   939charge 0 multiplicity 1
 C         3.376950         2.128081        -2.839587
 C         2.090970         2.512196        -2.272953
 C         2.226141         2.860814        -0.720602
 C         1.058613         1.986829        -0.127996
 C        -0.058058         1.656151        -1.321825
 C         0.866001         1.734013        -2.622267
 O         0.982381         3.012684        -3.059237
 C         1.684894         0.705742         0.508724
 O         1.570050         0.149622         1.632622
 H         4.186760         2.917550        -2.785585
 H         3.639796         1.244297        -2.367572
 H         3.218955         1.843774        -4.033701
 H         3.172654         2.361167        -0.308945
 H         2.111106         3.973474        -0.747077
 H         0.730791         2.317136         0.934694
 H        -0.604441         0.735787        -1.194173
 H        -0.803064         2.445912        -1.161166
 H         0.775207         0.930532        -3.376623
 H         2.368213         0.236485        -0.357503
