19
Iteration:    82charge 0 multiplicity 1
 C         3.231637         2.582358        -3.393508
 C         2.150755         2.422636        -2.307433
 C         2.674202         2.382609        -0.898233
 C         1.349377         1.916605        -0.164383
 C         0.439385         1.177046        -1.214569
 C         0.846707         1.802050        -2.507404
 O         0.964383         3.156096        -2.579590
 C         1.559176         0.985119         0.985726
 O         0.673141         0.247909         1.285984
 H         3.854221         3.491881        -3.320010
 H         3.890097         1.681044        -3.388093
 H         2.750039         2.519074        -4.389494
 H         3.507727         1.506471        -0.872098
 H         3.258487         3.296020        -0.593812
 H         0.805937         2.817359         0.225485
 H         0.970706         0.055746        -1.179520
 H        -0.625016         1.001746        -0.884110
 H         0.521222         1.339643        -3.474016
 H         2.400903         1.218935         1.597634
