19
Iteration:  1246
 C         3.211214         2.981940        -3.349431
 C         2.203168         2.399292        -2.443817
 C         2.568801         1.942555        -1.030448
 C         1.281127         1.513029        -0.346725
 C         0.404283         0.893951        -1.542425
 C         0.829683         1.844554        -2.679711
 O         1.013772         3.217880        -2.368957
 C         1.196638         0.622948         0.840704
 O         1.168096         1.092758         2.026508
 H         3.640806         3.986191        -3.085040
 H         4.009817         2.279590        -3.405200
 H         2.844583         3.028188        -4.412943
 H         3.237951         1.034938        -1.139767
 H         3.131311         2.726352        -0.528584
 H         0.755176         2.457831        -0.189235
 H         0.728797        -0.186833        -1.672879
 H        -0.701139         0.817874        -1.303308
 H         0.607712         1.616745        -3.749470
 H         1.067948        -0.472204         0.646590
