19
Iteration:  2543charge 0 multiplicity 1
 C         2.979649         3.099135        -3.499205
 C         2.158292         2.573826        -2.345460
 C         2.697061         2.278673        -0.947803
 C         1.349392         1.689770        -0.349762
 C         0.810612         0.723880        -1.408939
 C         1.123152         1.600777        -2.631262
 O         0.782647         3.001655        -2.387574
 C         1.469862         0.866604         0.892462
 O         0.629025         0.770862         1.827235
 H         3.243580         4.062392        -3.294013
 H         3.893440         2.576467        -3.600060
 H         2.318244         2.993782        -4.372479
 H         3.460822         1.456514        -1.154102
 H         3.223375         3.109072        -0.323280
 H         0.606906         2.455570        -0.339741
 H         1.335599        -0.252083        -1.432735
 H        -0.232298         0.525477        -1.248545
 H         0.794681         1.274155        -3.616024
 H         2.261905         0.069584         0.879188
