19
Iteration:  1168
 C         3.334532         2.497986        -3.288356
 C         2.138091         2.440784        -2.378638
 C         2.394114         2.425312        -0.889294
 C         1.197876         1.661771        -0.228101
 C         0.248079         1.226025        -1.427407
 C         0.817773         1.811236        -2.714160
 O         0.979758         3.222085        -2.625008
 C         1.672526         0.654346         0.769690
 O         1.094874         0.639354         1.903292
 H         3.878964         3.432102        -3.107899
 H         3.988303         1.721859        -3.469402
 H         2.859871         2.768550        -4.317678
 H         3.341129         1.882470        -0.600180
 H         2.489064         3.430247        -0.537402
 H         0.504743         2.342939         0.286790
 H         0.326441         0.092616        -1.423558
 H        -0.857036         1.367754        -1.169767
 H         0.826896         1.381838        -3.719348
 H         2.378946        -0.188122         0.525056
