19
Iteration:  1703charge 0 multiplicity 1
 C         3.394195         2.699891        -3.074965
 C         2.130171         2.423787        -2.363050
 C         2.308739         2.771408        -0.820506
 C         1.116554         1.867507        -0.080839
 C         0.196979         1.296511        -1.324683
 C         0.984775         1.524268        -2.549654
 O         0.800978         2.958554        -3.007362
 C         1.696954         0.764955         0.641301
 O         1.244625         0.301121         1.748690
 H         3.676369         3.749869        -2.866886
 H         4.144086         1.951924        -2.774390
 H         3.234672         2.781949        -4.115690
 H         3.250375         2.192044        -0.481450
 H         2.336856         3.810480        -0.474665
 H         0.598350         2.516318         0.607280
 H        -0.064266         0.235013        -1.080112
 H        -0.816433         1.801041        -1.530648
 H         0.853591         0.806159        -3.460757
 H         2.682135         0.421983         0.209760
