19
Iteration:  3395charge 0 multiplicity 1
 C         3.182954         3.075487        -3.243608
 C         2.101549         2.599770        -2.318217
 C         2.190869         2.600379        -0.792523
 C         1.055379         1.636691        -0.305276
 C         0.661669         0.700188        -1.508908
 C         1.186064         1.564609        -2.689108
 O         0.802802         2.887064        -2.800425
 C         1.549712         0.759022         0.815596
 O         1.111590         0.762113         1.962829
 H         3.457015         4.174769        -3.316984
 H         4.202362         2.498170        -3.004824
 H         2.868461         2.756358        -4.246798
 H         3.194864         2.234733        -0.233159
 H         1.989366         3.583579        -0.205460
 H         0.200562         2.156457         0.012564
 H         1.281711        -0.215876        -1.544489
 H        -0.447535         0.587630        -1.529245
 H         1.458649         0.988081        -3.627943
 H         2.583448         0.231758         0.641260
