19
Iteration:  2606
 C         3.119796         3.148816        -3.347738
 C         2.131231         2.521037        -2.400314
 C         2.643360         2.193008        -0.931728
 C         1.373526         1.581599        -0.355916
 C         0.726213         0.762935        -1.469599
 C         1.009755         1.613555        -2.734928
 O         0.676414         2.961545        -2.426541
 C         1.569892         0.855675         0.955795
 O         0.702805         0.891701         1.810930
 H         3.102725         4.239351        -3.179805
 H         4.108779         2.743771        -3.133575
 H         2.955822         3.017774        -4.451561
 H         3.553205         1.651104        -0.934857
 H         2.935769         3.085262        -0.433013
 H         0.786363         2.406811        -0.109073
 H         1.228312        -0.239861        -1.527260
 H        -0.275932         0.538913        -1.269902
 H         0.745577         1.234829        -3.691826
 H         2.450521         0.170906         1.040406
