19
Iteration:   234
 C         3.329455         2.119702        -3.252703
 C         2.211043         2.272429        -2.227846
 C         2.272909         2.189582        -0.760564
 C         0.947638         1.977644        -0.138412
 C         0.060009         1.538357        -1.374440
 C         0.786434         2.014740        -2.615559
 O         1.174682         3.393975        -2.654054
 C         0.966967         0.849671         0.944645
 O         2.012104         0.299932         1.306963
 H         4.260166         2.712149        -2.956256
 H         3.664020         1.039772        -3.513060
 H         2.935756         2.523025        -4.222762
 H         2.791460         1.292662        -0.307708
 H         2.832063         3.064593        -0.449400
 H         0.557482         2.930272         0.275203
 H         0.056276         0.501675        -1.394374
 H        -0.948916         1.946846        -1.340480
 H         0.648664         1.474941        -3.682087
 H        -0.073926         0.490156         1.269062
