19
Iteration:  4085charge 0 multiplicity 1
 C         3.207547         3.372588        -2.984167
 C         2.083426         2.642370        -2.228847
 C         1.914773         2.857823        -0.719534
 C         0.822848         1.801615        -0.286371
 C         0.792279         0.710037        -1.292674
 C         1.426121         1.301494        -2.573654
 O         0.881358         2.534403        -2.988897
 C         1.115612         1.261543         1.050920
 O         1.599569         0.142190         1.212218
 H         3.078395         4.476752        -2.736780
 H         4.202359         2.959223        -2.498937
 H         3.111559         3.201338        -4.058917
 H         2.945192         2.554284        -0.255890
 H         1.471149         3.927962        -0.547567
 H        -0.125201         2.386890        -0.053396
 H         1.218156        -0.223369        -1.134252
 H        -0.237857         0.453137        -1.449900
 H         1.816156         0.575770        -3.313166
 H         1.055796         2.070835         1.892096
