19
Iteration:  4054
 C         3.192719         3.349760        -2.823524
 C         2.105141         2.634966        -2.197686
 C         1.883998         2.880165        -0.783204
 C         0.750012         1.826635        -0.287805
 C         0.662713         0.663511        -1.474137
 C         1.498670         1.241900        -2.603187
 O         0.808951         2.516903        -2.928770
 C         1.349131         1.308299         0.984480
 O         1.562010         0.144094         1.289971
 H         2.954379         4.340768        -3.061081
 H         3.990819         3.414252        -2.230212
 H         3.614822         3.071906        -3.797818
 H         2.785008         2.712711        -0.074450
 H         1.790203         3.952643        -0.578073
 H        -0.138655         2.477882         0.047455
 H         1.090466        -0.287082        -1.213329
 H        -0.405990         0.648035        -1.820985
 H         1.960159         0.631111        -3.373303
 H         1.689376         2.171413         1.552644
