19
Iteration:  3550
 C         3.425976         2.856956        -2.705578
 C         1.980908         2.682445        -2.211611
 C         1.711195         2.819242        -0.727011
 C         0.795536         1.576907        -0.279488
 C         0.412824         0.851614        -1.616730
 C         1.164764         1.450506        -2.713360
 O         0.876809         2.864736        -3.143419
 C         1.507315         0.594705         0.701586
 O         1.887875         0.916184         1.830431
 H         3.728611         3.904026        -2.609320
 H         3.999454         2.270224        -2.045116
 H         3.602890         2.461083        -3.653329
 H         2.747112         2.882489        -0.204486
 H         1.236815         3.768862        -0.658259
 H        -0.057210         1.877784         0.245465
 H         0.671727        -0.173461        -1.657979
 H        -0.666661         0.700631        -1.733371
 H         1.396963         0.887218        -3.556113
 H         1.710320        -0.437863         0.526376
