19
Iteration:  2503
 C         3.186852         2.939364        -3.323806
 C         2.175963         2.509518        -2.445625
 C         2.530855         2.495416        -0.938276
 C         1.341770         1.651970        -0.271000
 C         0.691344         0.793389        -1.410053
 C         0.929176         1.652394        -2.681673
 O         0.699074         3.016399        -2.619778
 C         1.627967         0.845465         0.960111
 O         0.770645         0.629228         1.868989
 H         3.820395         3.809668        -2.804988
 H         4.065513         2.333055        -3.697856
 H         2.808673         3.502928        -4.226003
 H         3.446010         1.859509        -0.929881
 H         2.512843         3.444530        -0.483531
 H         0.596201         2.458107         0.093195
 H         1.120015        -0.203822        -1.481237
 H        -0.450728         0.915587        -1.244588
 H         0.703986         1.241959        -3.719225
 H         2.602318         0.269981         0.874722
