19
Iteration:  1881charge 0 multiplicity 1
 C         3.077007         3.219353        -3.324491
 C         2.179027         2.455534        -2.337809
 C         2.688657         2.038928        -0.985624
 C         1.334347         1.497657        -0.366322
 C         0.557490         0.805771        -1.604561
 C         0.938925         1.659981        -2.742728
 O         0.892502         3.028879        -2.377076
 C         1.349836         0.669072         0.911813
 O         0.931498         1.099822         1.929710
 H         3.425174         4.225810        -2.924417
 H         3.914631         2.652397        -3.655006
 H         2.421605         3.550392        -4.181235
 H         3.543138         1.302488        -1.368340
 H         3.075684         2.823776        -0.321962
 H         0.796025         2.368567        -0.034729
 H         0.771944        -0.236771        -1.621104
 H        -0.583308         0.820751        -1.391330
 H         0.625312         1.266255        -3.764436
 H         1.884946        -0.360961         0.871148
