19
Iteration:   162charge 0 multiplicity 1
 C         3.311634         2.425762        -3.339694
 C         2.192373         2.398660        -2.331179
 C         2.479699         2.071918        -0.873109
 C         1.075405         1.974847        -0.142776
 C         0.153319         1.299663        -1.348401
 C         0.771605         1.860099        -2.631052
 O         1.177311         3.325261        -2.588429
 C         1.160768         1.225139         1.208106
 O         1.497722         0.069099         1.264137
 H         3.944913         3.366841        -3.281705
 H         4.013489         1.607303        -3.258506
 H         2.862485         2.527718        -4.308480
 H         2.876705         1.008089        -0.979264
 H         3.124812         2.778021        -0.285701
 H         0.649968         2.984514        -0.118691
 H         0.193894         0.105122        -1.377942
 H        -0.929268         1.532507        -1.133761
 H         0.580996         1.449175        -3.649597
 H         0.731956         1.868720         2.105806
