19
Iteration:  1404
 C         3.366292         2.720981        -3.271959
 C         2.181957         2.417045        -2.332935
 C         2.258640         2.441245        -0.815232
 C         1.008838         1.752228        -0.245127
 C         0.310052         1.140836        -1.512902
 C         0.949306         1.660960        -2.688906
 O         0.977797         3.156568        -2.642368
 C         1.210369         0.626066         0.766736
 O         1.577951         0.699174         1.916521
 H         3.595081         3.710597        -3.103970
 H         4.192783         1.942996        -3.129784
 H         2.986009         2.496615        -4.328607
 H         3.102785         1.809216        -0.628039
 H         2.535778         3.488675        -0.502770
 H         0.273036         2.529087         0.103539
 H         0.544553         0.019468        -1.714756
 H        -0.782685         1.120197        -1.381785
 H         0.733013         1.123683        -3.652071
 H         1.087031        -0.417152         0.203819
