19
Iteration:   160
 C         3.294126         2.431748        -3.351283
 C         2.203244         2.399233        -2.336757
 C         2.483001         2.076900        -0.880683
 C         1.084271         1.948356        -0.122808
 C         0.159095         1.296921        -1.341358
 C         0.787500         1.862936        -2.626639
 O         1.181606         3.330139        -2.604353
 C         1.166206         1.228827         1.224252
 O         1.475426         0.068798         1.260697
 H         3.917969         3.389934        -3.318918
 H         4.038564         1.627363        -3.249957
 H         2.849202         2.555142        -4.275916
 H         2.917981         0.969758        -0.983941
 H         3.047411         2.812963        -0.258215
 H         0.669262         2.970505        -0.082585
 H         0.187030         0.098039        -1.374979
 H        -0.934903         1.501287        -1.138932
 H         0.537233         1.440990        -3.690279
 H         0.717003         1.922433         2.121238
