19
Iteration:  2804
 C         3.420676         2.777100        -2.971868
 C         2.082790         2.640683        -2.245989
 C         1.870894         2.839894        -0.724347
 C         0.836330         1.649303        -0.200255
 C         0.270742         1.098032        -1.507906
 C         1.121167         1.484491        -2.663882
 O         0.937069         2.856439        -3.004999
 C         1.587735         0.596171         0.633771
 O         1.655617         0.688439         1.839462
 H         3.834665         3.789467        -3.008495
 H         4.210144         2.286270        -2.332448
 H         3.362688         2.189248        -3.987201
 H         2.890561         2.830243        -0.273434
 H         1.435994         3.760031        -0.533659
 H         0.050851         2.030573         0.566841
 H         0.366069        -0.023263        -1.439850
 H        -0.728601         1.522821        -1.629808
 H         1.467286         0.802278        -3.568383
 H         1.924873        -0.318213         0.048414
