19
Iteration:  1646
 C         3.378457         2.390087        -3.099246
 C         2.114108         2.520783        -2.266656
 C         1.957548         2.832222        -0.766725
 C         0.975701         1.908877        -0.073025
 C         0.289043         1.280629        -1.330632
 C         0.983306         1.667958        -2.608095
 O         0.969915         3.073323        -2.958531
 C         1.667421         0.795235         0.572988
 O         1.454763         0.245521         1.716842
 H         3.740527         3.306118        -3.469925
 H         4.265829         2.037898        -2.542518
 H         3.127081         1.645381        -3.880100
 H         2.989501         2.706274        -0.324826
 H         1.680635         3.940625        -0.676360
 H         0.291099         2.440149         0.643086
 H         0.487947         0.237740        -1.223129
 H        -0.808878         1.332647        -1.340784
 H         1.145630         0.845645        -3.356434
 H         2.473693         0.269504        -0.078128
