19
Iteration:  1710charge 0 multiplicity 1
 C         3.417091         2.752732        -3.095806
 C         2.099815         2.457921        -2.316005
 C         2.307837         2.727661        -0.833966
 C         1.138778         1.926185        -0.134960
 C         0.193215         1.275924        -1.276536
 C         0.944763         1.533633        -2.598411
 O         0.832799         2.917680        -3.003084
 C         1.619709         0.757882         0.721838
 O         1.265239         0.290349         1.722944
 H         3.787643         3.679729        -2.745384
 H         4.220239         1.984753        -3.057937
 H         3.160739         2.670632        -4.197870
 H         3.280509         2.285803        -0.702693
 H         2.449010         3.729734        -0.341160
 H         0.493618         2.561973         0.553201
 H         0.095725         0.232799        -1.182847
 H        -0.716808         1.788157        -1.297704
 H         1.018213         0.776952        -3.334776
 H         2.551420         0.379736         0.221010
