19
Iteration:  2018
 C         3.341495         2.886101        -3.168173
 C         2.110315         2.608820        -2.420512
 C         2.264412         2.394937        -0.824631
 C         1.051673         1.794880        -0.133641
 C         0.386966         1.073196        -1.436631
 C         1.052936         1.511337        -2.717727
 O         0.823185         3.055938        -2.871519
 C         1.501137         0.700835         0.773055
 O         1.296445         0.590045         1.925218
 H         3.623200         3.943821        -2.952748
 H         4.199247         2.172085        -2.906144
 H         3.185887         2.826755        -4.231563
 H         3.311160         1.893708        -0.510915
 H         2.399948         3.424308        -0.348909
 H         0.535045         2.580099         0.475363
 H         0.640984        -0.083133        -1.276162
 H        -0.721938         1.033035        -1.422000
 H         0.864076         0.858020        -3.663713
 H         2.106241        -0.006991         0.151350
