19
Iteration:  1014
 C         3.381901         2.242303        -3.097470
 C         2.157112         2.470957        -2.224776
 C         2.271185         2.767912        -0.815523
 C         1.039542         2.016707        -0.036457
 C         0.143493         1.546880        -1.162524
 C         0.950443         1.659609        -2.429502
 O         0.930993         3.033933        -3.000684
 C         1.707863         0.766783         0.492635
 O         1.298539         0.182886         1.524228
 H         4.019956         3.114898        -3.427106
 H         3.915704         1.504276        -2.514830
 H         3.091779         1.747883        -4.167276
 H         3.193063         2.451658        -0.217296
 H         1.939718         3.800185        -0.676986
 H         0.660618         2.725983         0.773834
 H        -0.396480         0.567310        -0.952243
 H        -0.703894         2.308205        -1.329111
 H         1.037078         0.880088        -3.177427
 H         2.325698         0.382989        -0.382446
