19
Iteration:  3392
 C         3.198242         3.067210        -3.248315
 C         2.082807         2.615177        -2.322232
 C         2.210340         2.580487        -0.783319
 C         1.052034         1.632664        -0.313389
 C         0.672744         0.695546        -1.526736
 C         1.184686         1.530816        -2.711328
 O         0.789503         2.901292        -2.767035
 C         1.577413         0.783376         0.836179
 O         1.079544         0.762852         1.950448
 H         3.388853         4.109929        -3.311182
 H         4.159190         2.538874        -3.101859
 H         2.981348         2.734286        -4.211223
 H         3.257638         2.314708        -0.342838
 H         2.058544         3.585657        -0.177039
 H         0.156970         2.141872         0.135850
 H         1.275052        -0.215241        -1.461730
 H        -0.365812         0.546991        -1.516830
 H         1.420525         1.090428        -3.662234
 H         2.579716         0.278433         0.583392
