19
Iteration:  4118
 C         3.229839         3.211462        -3.057014
 C         2.046363         2.648386        -2.277544
 C         1.868273         2.841375        -0.759999
 C         0.806378         1.813923        -0.293003
 C         0.993095         0.747441        -1.386723
 C         1.451235         1.429990        -2.673644
 O         0.797381         2.669282        -2.936222
 C         0.998576         1.130422         1.148037
 O         1.635204         0.156277         1.398975
 H         3.548316         4.242893        -2.672767
 H         4.090510         2.439012        -2.809586
 H         2.939521         3.083306        -4.136687
 H         2.931557         2.805982        -0.266743
 H         1.554903         3.944358        -0.554168
 H        -0.283140         2.157796        -0.267219
 H         1.717930         0.031766        -1.071038
 H         0.027546         0.302837        -1.567342
 H         1.844903         0.795534        -3.475014
 H         0.559791         1.697964         2.027734
