19
Iteration:  3226
 C         3.136659         3.056148        -3.354261
 C         2.038395         2.635950        -2.448574
 C         2.479636         2.482371        -0.955653
 C         1.274678         1.646091        -0.223179
 C         0.880227         0.692886        -1.495462
 C         1.110941         1.588636        -2.708943
 O         0.687385         2.935310        -2.527475
 C         1.609446         0.997491         1.044735
 O         0.716967         0.589361         1.781528
 H         3.360097         4.052655        -3.114404
 H         3.895540         2.338352        -3.208600
 H         2.894449         2.884428        -4.473775
 H         3.443186         1.878501        -0.855266
 H         2.933269         3.473372        -0.438144
 H         0.303528         2.254250        -0.008091
 H         1.481069        -0.199616        -1.574632
 H        -0.186718         0.392386        -1.283749
 H         0.956447         1.204281        -3.775251
 H         2.633138         0.745957         1.405239
