19
Iteration:    98charge 0 multiplicity 1
 C         3.253206         2.502090        -3.448411
 C         2.207357         2.450120        -2.369549
 C         2.616166         2.300815        -0.890135
 C         1.331499         1.872361        -0.212884
 C         0.428276         1.129549        -1.177118
 C         0.882712         1.754700        -2.486520
 O         0.944239         3.280528        -2.515264
 C         1.467981         1.159103         1.062222
 O         0.798133         0.167996         1.217806
 H         3.728302         3.528407        -3.321716
 H         4.015613         1.733129        -3.317640
 H         2.828856         2.345970        -4.462660
 H         3.413711         1.618424        -0.732894
 H         2.896678         3.195879        -0.337841
 H         0.829419         2.810389         0.066496
 H         0.442408         0.065693        -1.268148
 H        -0.574457         1.493006        -0.968735
 H         0.575785         1.217884        -3.433080
 H         2.276852         1.400328         1.828509
