19
Iteration:  1457charge 0 multiplicity 1
 C         3.405122         2.500813        -2.991260
 C         2.113904         2.490754        -2.293717
 C         2.119048         2.422141        -0.707900
 C         0.813115         1.595320        -0.220302
 C         0.071245         1.215745        -1.568300
 C         0.915488         1.712572        -2.751565
 O         0.991397         3.281410        -2.836909
 C         1.575861         0.538199         0.611267
 O         1.753352         0.809665         1.871100
 H         3.822551         3.486047        -3.212856
 H         4.144344         2.041489        -2.329953
 H         3.221070         1.786553        -3.778607
 H         3.052763         1.918315        -0.397208
 H         2.163186         3.541368        -0.282742
 H         0.197642         2.292356         0.376164
 H         0.077831         0.136089        -1.687326
 H        -0.949923         1.535495        -1.598632
 H         0.781954         1.107629        -3.711065
 H         1.993153        -0.375501         0.169227
