19
Iteration:  2456
 C         3.274595         2.832862        -3.296984
 C         2.222325         2.484937        -2.262921
 C         2.330206         2.541203        -0.806704
 C         1.076203         1.813344        -0.213063
 C         0.473832         0.931472        -1.463629
 C         1.049105         1.650202        -2.658117
 O         0.734637         3.025415        -2.808890
 C         1.585939         0.885070         0.888891
 O         1.120564         0.455863         1.853246
 H         3.871846         3.665303        -3.185457
 H         4.021362         2.071773        -3.443961
 H         2.781488         2.923117        -4.294902
 H         3.198984         1.876670        -0.541362
 H         2.412948         3.591723        -0.406685
 H         0.234235         2.413203        -0.005012
 H         0.879049        -0.084961        -1.619292
 H        -0.569419         0.964313        -1.403613
 H         1.212304         1.141501        -3.583817
 H         2.684601         0.679848         0.567897
