19
Iteration:  4893
 C         3.421823         2.897208        -2.353930
 C         1.996254         2.504420        -1.991478
 C         1.366856         3.076775        -0.783832
 C         0.513375         1.926477        -0.134159
 C         0.313041         0.891175        -1.398712
 C         1.372010         1.187226        -2.362702
 O         1.071095         2.460590        -3.114086
 C         1.450900         1.298680         0.882346
 O         2.216918         0.422134         0.512170
 H         3.607935         3.913950        -2.768078
 H         4.084225         2.762933        -1.453476
 H         3.933247         2.197582        -3.110628
 H         2.190628         3.214031        -0.108853
 H         0.572485         4.011993        -0.909503
 H        -0.485290         2.234800         0.167249
 H         0.348890        -0.210812        -0.863150
 H        -0.752975         1.001983        -1.701148
 H         1.814856         0.353255        -2.947945
 H         1.472799         1.603332         2.010637
