19
Iteration:   683
 C         3.303258         2.535558        -3.484552
 C         2.193244         2.452226        -2.361993
 C         2.501882         2.049391        -0.889852
 C         1.154116         1.604373        -0.302284
 C         0.212896         1.272504        -1.454366
 C         0.843995         1.944118        -2.689591
 O         1.008901         3.325370        -2.529025
 C         1.368437         0.584828         0.835644
 O         1.256641         0.811627         2.034037
 H         3.638285         3.586489        -3.654339
 H         4.175137         1.791135        -3.424784
 H         2.764479         2.406601        -4.473486
 H         3.176360         1.157717        -1.033374
 H         3.026906         2.878773        -0.417266
 H         0.885292         2.456010         0.299945
 H         0.360863         0.208300        -1.550063
 H        -0.887566         1.474473        -1.400404
 H         0.620605         1.578903        -3.784083
 H         1.629613        -0.409693         0.578252
