19
Iteration:  3060
 C         3.394239         2.725516        -2.833177
 C         2.050622         2.552823        -2.222425
 C         1.904636         2.872713        -0.811353
 C         0.958788         1.725381        -0.204954
 C         0.266730         0.967412        -1.458982
 C         1.106310         1.481268        -2.690569
 O         0.880607         2.909006        -3.039338
 C         1.790667         0.805862         0.641016
 O         1.494871         0.552270         1.762543
 H         3.707050         3.798347        -2.738463
 H         4.052652         1.990810        -2.341361
 H         3.251749         2.354821        -3.881398
 H         2.817879         2.893772        -0.245921
 H         1.496033         3.902454        -0.595340
 H         0.027273         2.143772         0.355382
 H         0.371255        -0.110999        -1.306765
 H        -0.827543         1.325715        -1.486204
 H         1.222168         0.895486        -3.567738
 H         2.787574         0.462526         0.223799
