19
Iteration:   442
 C         3.219263         2.196122        -3.451084
 C         2.132434         2.305921        -2.394626
 C         2.658596         2.339698        -0.944306
 C         1.310816         1.884198        -0.193524
 C         0.109543         1.600620        -1.119753
 C         0.722918         1.938165        -2.488485
 O         1.081157         3.318665        -2.573455
 C         1.668215         0.686119         0.665152
 O         0.978746         0.369867         1.623912
 H         3.905672         3.050662        -3.208572
 H         3.773663         1.251459        -3.249081
 H         2.907615         2.151063        -4.461527
 H         3.353449         1.502715        -0.730670
 H         2.923374         3.376994        -0.720424
 H         1.008393         2.577566         0.636171
 H        -0.273914         0.475360        -1.154411
 H        -0.775680         2.215981        -0.749815
 H         0.342919         1.434297        -3.527394
 H         2.581661         0.159753         0.512266
