19
Iteration:  4881charge 0 multiplicity 1
 C         3.406305         2.886246        -2.395289
 C         2.007830         2.539737        -2.041730
 C         1.389535         3.082924        -0.662141
 C         0.500522         1.881581        -0.151206
 C         0.318788         0.930603        -1.273313
 C         1.394380         1.262711        -2.398057
 O         1.095822         2.353235        -3.170825
 C         1.386388         1.243296         0.903060
 O         2.199250         0.437069         0.482776
 H         3.387632         3.986427        -2.647230
 H         4.056646         2.790459        -1.438569
 H         3.752131         2.272930        -3.246497
 H         2.175618         3.443465         0.021155
 H         0.918715         4.171767        -0.937944
 H        -0.370723         2.265800         0.346716
 H         0.398537        -0.212059        -1.047225
 H        -0.604312         1.135708        -1.840654
 H         1.935722         0.440142        -2.976039
 H         1.388357         1.717566         1.973485
