19
Iteration:   701
 C         3.249620         2.566410        -3.379206
 C         2.180512         2.355500        -2.420701
 C         2.475386         2.144198        -0.868577
 C         1.103512         1.653993        -0.246883
 C         0.139209         1.250831        -1.433265
 C         0.790837         1.915093        -2.648618
 O         1.160206         3.310159        -2.631550
 C         1.405266         0.549578         0.773015
 O         1.352336         0.800344         1.961256
 H         3.718267         3.519548        -3.067566
 H         4.094795         1.775581        -3.193421
 H         2.980078         2.324574        -4.360337
 H         3.220842         1.366971        -0.645869
 H         2.635858         3.205613        -0.416202
 H         0.548373         2.491643         0.282589
 H        -0.217530         0.148644        -1.622060
 H        -0.873274         1.671367        -1.141024
 H         0.358796         1.562860        -3.590897
 H         1.785288        -0.429435         0.215061
