19
Iteration:  4763
 C         3.462539         2.885653        -2.460550
 C         2.003927         2.599373        -2.155337
 C         1.366698         3.144258        -0.839256
 C         0.683683         1.846981        -0.199140
 C         0.510075         0.763914        -1.427916
 C         1.389132         1.310461        -2.557089
 O         0.871933         2.596376        -3.081472
 C         1.550332         1.328597         0.928498
 O         1.963591         0.168012         0.984417
 H         3.695476         3.943868        -2.683140
 H         4.020722         2.637258        -1.584033
 H         3.695441         2.208052        -3.373599
 H         1.962177         3.788637        -0.017364
 H         0.547636         3.948339        -1.032458
 H        -0.321912         1.900637         0.335186
 H         0.847343        -0.290444        -0.969042
 H        -0.534997         0.742231        -1.786675
 H         1.818299         0.691439        -3.363783
 H         1.898254         2.232261         1.548342
