19
Iteration:  3682charge 0 multiplicity 1
 C         3.437490         2.930146        -2.627010
 C         2.036434         2.534839        -2.140821
 C         1.665949         2.827110        -0.770747
 C         0.613212         1.697944        -0.307832
 C         0.634252         0.649313        -1.605335
 C         1.254923         1.453526        -2.730381
 O         0.820478         2.866631        -2.958378
 C         1.052320         0.870664         0.926333
 O         2.225949         0.778447         1.367076
 H         3.746058         3.964965        -2.797891
 H         4.107282         2.433156        -1.964610
 H         3.626522         2.489641        -3.626344
 H         2.598582         2.493375        -0.057045
 H         1.191776         3.798221        -0.702620
 H        -0.293063         2.131647        -0.026515
 H         1.324029        -0.206290        -1.322553
 H        -0.430844         0.300140        -1.872729
 H         1.504604         0.854383        -3.590252
 H         0.144600         0.475018         1.500292
