19
Iteration:   611charge 0 multiplicity 1
 C         3.132821         2.796322        -3.545271
 C         2.198407         2.376635        -2.435448
 C         2.686016         1.868254        -1.147812
 C         1.384589         1.534538        -0.371780
 C         0.274487         1.101209        -1.401617
 C         0.811879         1.852142        -2.666172
 O         1.117585         3.262279        -2.259097
 C         1.489282         0.652675         0.957411
 O         0.846948         1.026511         1.943174
 H         3.935187         3.423426        -3.118687
 H         3.608297         1.961142        -4.103693
 H         2.506507         3.419054        -4.329808
 H         3.278284         0.954372        -1.319526
 H         3.117889         2.625338        -0.447869
 H         1.111185         2.531403        -0.001823
 H         0.177573        -0.073219        -1.670194
 H        -0.697639         1.381304        -1.003601
 H         0.352228         1.873821        -3.580470
 H         2.016214        -0.264645         1.015881
