19
Iteration:  3738
 C         3.288190         3.233379        -2.865855
 C         2.106409         2.576737        -2.158879
 C         1.808337         2.728766        -0.719909
 C         0.651045         1.848523        -0.354034
 C         0.649133         0.753601        -1.452684
 C         1.412257         1.312722        -2.597973
 O         0.869497         2.635513        -2.920966
 C         0.934714         0.970955         0.966131
 O         2.060611         0.575088         1.264998
 H         3.529874         4.165349        -2.364522
 H         4.138024         2.640467        -2.641247
 H         3.310608         3.229816        -4.028627
 H         2.691287         2.242697         0.033519
 H         1.577281         3.751372        -0.320431
 H        -0.202682         2.427964        -0.247648
 H         0.991458        -0.273136        -1.132827
 H        -0.454449         0.468110        -1.746400
 H         1.939614         0.676388        -3.403424
 H        -0.008073         0.806852         1.552822
