19
Iteration:  2992charge 0 multiplicity 1
 C         3.438372         2.780611        -2.877921
 C         2.116278         2.467591        -2.186321
 C         1.750949         2.846197        -0.721240
 C         0.717208         1.793241        -0.176738
 C         0.160907         1.121583        -1.416559
 C         1.127784         1.446378        -2.589534
 O         1.036778         2.803350        -3.094330
 C         1.694318         0.750819         0.521683
 O         1.722486         0.539934         1.738881
 H         3.519283         3.935783        -2.822729
 H         4.439131         2.329266        -2.596286
 H         3.322390         2.529051        -3.881113
 H         2.639685         3.020916         0.004668
 H         1.383600         3.826433        -0.852792
 H         0.068589         2.230424         0.691831
 H         0.015832         0.065825        -1.311118
 H        -0.727037         1.722927        -1.657808
 H         1.243577         0.708561        -3.348798
 H         2.464053         0.261416        -0.155859
