19
Iteration:  5000
 C         3.454373         2.983894        -2.339823
 C         1.941433         2.593223        -2.074945
 C         1.277010         3.095517        -0.924294
 C         0.641178         1.871826        -0.143508
 C         0.388786         0.903202        -1.314161
 C         1.363973         1.197139        -2.342758
 O         1.034185         2.458874        -3.164313
 C         1.595577         1.316151         0.780815
 O         2.055246         0.194360         0.753933
 H         3.406422         4.054621        -2.035541
 H         4.234376         2.486811        -1.653313
 H         3.767520         2.747306        -3.400153
 H         1.924758         3.752286        -0.257926
 H         0.613327         3.896907        -1.176838
 H        -0.314143         2.140108         0.361480
 H         0.411081        -0.070777        -0.880358
 H        -0.591471         1.207732        -1.626292
 H         1.719015         0.395088        -3.087377
 H         2.050355         1.982868         1.607441
