19
Iteration:  1061
 C         3.424157         2.452721        -3.188500
 C         2.161183         2.298255        -2.343557
 C         2.234888         2.695866        -0.849349
 C         1.275981         1.920749        -0.032635
 C         0.084928         1.594614        -1.168729
 C         0.895364         1.637729        -2.471700
 O         0.998001         3.034441        -2.970336
 C         1.624093         0.676444         0.611274
 O         1.193829         0.230407         1.638181
 H         3.635689         3.554645        -3.097728
 H         4.312638         1.884187        -2.857520
 H         3.193902         2.296300        -4.346300
 H         3.312363         2.729567        -0.576567
 H         1.785126         3.738377        -0.775781
 H         0.684336         2.540611         0.662606
 H        -0.401987         0.660082        -0.923047
 H        -0.616417         2.412546        -1.136204
 H         0.681207         0.969251        -3.342700
 H         2.510298         0.256446         0.052536
