19
Iteration:  4646charge 0 multiplicity 1
 C         3.198081         3.248811        -2.937808
 C         2.053113         2.628005        -2.267739
 C         1.770833         2.960183        -0.691684
 C         0.854704         1.801618        -0.285478
 C         0.854857         0.713139        -1.300872
 C         1.423831         1.334417        -2.557773
 O         0.871447         2.636456        -3.029962
 C         1.304808         1.235084         1.010915
 O         1.513662         0.044999         1.253194
 H         3.199891         4.339103        -3.110589
 H         4.094313         3.244225        -2.326071
 H         3.310605         2.925919        -4.096425
 H         2.577275         3.168324        -0.061271
 H         1.326953         3.933562        -0.658282
 H        -0.155250         2.167345        -0.106376
 H         1.496213        -0.104288        -0.948751
 H        -0.156367         0.307626        -1.456362
 H         1.797061         0.571411        -3.260574
 H         1.402717         2.064760         1.823058
