19
Iteration:  3177charge 0 multiplicity 1
 C         3.247361         3.099435        -3.286678
 C         2.120095         2.474980        -2.390640
 C         2.204098         2.602098        -0.833680
 C         1.086114         1.823146        -0.253457
 C         0.591054         0.865417        -1.432916
 C         1.122954         1.471874        -2.730326
 O         0.850502         2.916261        -2.785220
 C         1.645344         0.840560         0.954551
 O         1.019440         0.485219         1.904614
 H         3.212546         4.253178        -3.088925
 H         4.249159         2.541348        -3.282795
 H         2.905105         2.896013        -4.268518
 H         3.267374         2.235286        -0.529090
 H         2.268216         3.572787        -0.509744
 H         0.240233         2.447703         0.041276
 H         0.949821        -0.249069        -1.398451
 H        -0.477908         0.763114        -1.370680
 H         1.093411         1.021276        -3.669333
 H         2.728075         0.569704         0.882902
