19
Iteration:  1240charge 0 multiplicity 1
 C         3.222246         2.980774        -3.370303
 C         2.196544         2.386514        -2.407933
 C         2.556047         1.924042        -1.016033
 C         1.264492         1.595705        -0.387835
 C         0.446172         0.909163        -1.511861
 C         0.806689         1.825096        -2.698520
 O         1.007854         3.224830        -2.392983
 C         1.191748         0.655378         0.870007
 O         1.165254         1.013393         2.028671
 H         3.644896         3.943754        -3.126031
 H         4.138448         2.313675        -3.597024
 H         2.982649         3.096541        -4.409149
 H         3.211985         1.087189        -1.093051
 H         3.100016         2.801480        -0.568198
 H         0.768905         2.575589        -0.240733
 H         0.660839        -0.145702        -1.686828
 H        -0.541106         0.832394        -1.092683
 H         0.585548         1.447900        -3.693144
 H         1.040613        -0.448946         0.664028
