19
Iteration:  1182charge 0 multiplicity 1
 C         3.255570         2.682006        -3.395043
 C         2.196099         2.436372        -2.334107
 C         2.503777         2.284528        -0.847482
 C         1.166672         1.668864        -0.260888
 C         0.224497         1.119293        -1.446620
 C         0.917164         1.790915        -2.620043
 O         0.938440         3.233453        -2.671508
 C         1.541539         0.605507         0.792786
 O         1.115920         0.728105         1.914038
 H         4.033000         3.375896        -3.075880
 H         3.744011         1.735713        -3.267601
 H         2.924085         2.800926        -4.387961
 H         3.387186         1.716570        -0.731317
 H         2.737338         3.248973        -0.384175
 H         0.733756         2.425350         0.399597
 H         0.184134         0.064902        -1.694201
 H        -0.718510         1.590216        -1.348805
 H         0.624176         1.284872        -3.575663
 H         2.382191        -0.051627         0.565495
