19
Iteration:  2278charge 0 multiplicity 1
 C         3.356461         2.581272        -2.931633
 C         2.083855         2.579979        -2.283281
 C         1.978369         2.835148        -0.780485
 C         0.930381         1.789111        -0.184224
 C         0.143568         1.266144        -1.419114
 C         1.023400         1.582772        -2.657212
 O         0.975506         2.949318        -3.057886
 C         1.774190         0.757726         0.669551
 O         1.559871         0.320415         1.828059
 H         3.912076         3.533542        -3.002142
 H         3.893325         1.657809        -2.543491
 H         3.182128         2.390044        -3.944107
 H         2.869330         2.740264        -0.091799
 H         1.741940         4.008036        -0.597458
 H         0.181010         2.450175         0.404011
 H        -0.025491         0.153845        -1.417192
 H        -0.875147         1.599113        -1.677920
 H         1.011049         0.764749        -3.496336
 H         2.643684         0.287328         0.107846
