19
Iteration:  1124charge 0 multiplicity 1
 C         3.362173         2.302555        -3.269539
 C         2.152419         2.508395        -2.272218
 C         2.297932         2.631000        -0.805684
 C         1.126510         1.993647        -0.140219
 C         0.332887         1.262601        -1.313145
 C         0.880521         1.763073        -2.599903
 O         0.925922         3.208137        -2.833323
 C         1.561126         0.750325         0.696396
 O         1.224831         0.318822         1.743230
 H         4.032301         3.165814        -3.285390
 H         3.845988         1.454431        -2.991017
 H         3.001428         2.099865        -4.354877
 H         3.046528         1.831473        -0.661017
 H         2.509172         3.528625        -0.312059
 H         0.523474         2.690445         0.476880
 H         0.484528         0.141027        -1.259797
 H        -0.801147         1.113285        -1.211117
 H         0.585503         1.304382        -3.533363
 H         2.366803         0.324054         0.060200
