19
Iteration:  3167
 C         3.242789         3.062611        -3.209891
 C         2.133231         2.563463        -2.424370
 C         2.213213         2.607727        -0.910996
 C         1.093277         1.793035        -0.173506
 C         0.590566         0.923509        -1.392693
 C         1.142835         1.439796        -2.688479
 O         0.801285         2.895519        -2.844544
 C         1.640401         0.786923         0.869486
 O         1.036361         0.490696         1.910405
 H         3.521138         4.161521        -3.177180
 H         4.233276         2.610279        -2.954730
 H         3.054851         2.965406        -4.197231
 H         3.242809         2.343521        -0.419316
 H         2.000039         3.641890        -0.787492
 H         0.277364         2.448817         0.253967
 H         0.829316        -0.151003        -1.195867
 H        -0.508731         0.934706        -1.420860
 H         1.151382         0.870485        -3.565256
 H         2.679041         0.473335         0.611569
