19
Iteration:  4499charge 0 multiplicity 1
 C         3.067519         3.523126        -3.146056
 C         2.105584         2.647377        -2.365518
 C         2.156257         2.722519        -0.825122
 C         1.019670         1.725011        -0.335544
 C         1.129638         0.648971        -1.407384
 C         1.456056         1.352185        -2.624138
 O         0.750671         2.579615        -2.770841
 C         1.099838         1.232394         1.103299
 O         1.126691         0.123229         1.531009
 H         3.025692         4.670147        -2.694990
 H         4.215426         3.191027        -3.302135
 H         2.669261         3.769098        -4.225089
 H         3.163223         2.433474        -0.520737
 H         1.963165         3.601049        -0.278184
 H         0.065959         2.271264        -0.455461
 H         1.982453         0.056657        -1.220501
 H         0.220723         0.104839        -1.463783
 H         1.517047         0.936438        -3.666057
 H         1.286275         2.074733         1.894761
