19
Iteration:  1748
 C         3.350567         2.690227        -3.336963
 C         2.146363         2.497138        -2.288420
 C         2.309239         2.712439        -0.786204
 C         1.117330         1.885334        -0.160522
 C         0.382954         1.096628        -1.348684
 C         0.989299         1.569779        -2.615021
 O         0.864698         3.026837        -2.793174
 C         1.564947         0.725016         0.736237
 O         1.145943         0.405560         1.787439
 H         3.844368         3.680162        -3.122770
 H         4.112173         1.945225        -3.447151
 H         2.909986         3.084558        -4.205962
 H         3.315597         2.191591        -0.526388
 H         2.304827         3.781432        -0.689686
 H         0.360722         2.413784         0.373280
 H         0.341472        -0.007346        -1.201338
 H        -0.708715         1.371536        -1.145315
 H         1.150021         0.905912        -3.539571
 H         2.434947         0.205020         0.229486
