19
Iteration:  4536charge 0 multiplicity 1
 C         2.950053         3.616096        -3.057809
 C         2.109675         2.693759        -2.286541
 C         2.294085         2.549499        -0.711877
 C         1.144605         1.652288        -0.383906
 C         1.017575         0.589159        -1.457502
 C         1.476412         1.356374        -2.667115
 O         0.729524         2.554295        -2.824224
 C         0.961107         1.325763         1.059702
 O         1.253061         0.255510         1.516857
 H         3.112220         4.492196        -2.444172
 H         3.866199         3.130427        -3.295273
 H         2.368251         3.829498        -4.096038
 H         3.220807         1.941264        -0.715480
 H         2.324796         3.550279        -0.141543
 H         0.435558         2.455337        -0.616007
 H         1.616040        -0.369343        -1.124000
 H         0.025006         0.200809        -1.799595
 H         1.793460         0.727120        -3.463076
 H         0.642455         2.271304         1.698043
