19
Iteration:   766
 C         3.286599         2.263321        -3.124123
 C         2.167753         2.497545        -2.227718
 C         2.226631         2.491834        -0.775372
 C         0.977375         1.866051        -0.170327
 C         0.153956         1.408399        -1.397446
 C         0.879741         1.786395        -2.602338
 O         1.059645         3.220274        -2.855962
 C         1.368311         0.601583         0.570999
 O         1.672264         0.555433         1.768333
 H         4.211850         2.730901        -2.723280
 H         3.618573         1.174765        -3.200757
 H         2.859223         2.463759        -4.199851
 H         2.997908         1.789167        -0.461657
 H         2.732289         3.438439        -0.352689
 H         0.374782         2.472689         0.582677
 H        -0.170686         0.316770        -1.410180
 H        -0.834762         1.910982        -1.477839
 H         0.848634         1.236931        -3.545699
 H         1.515473        -0.296741        -0.059070
