19
Iteration:   420
 C         3.226977         2.077284        -3.406643
 C         2.132990         2.463536        -2.341958
 C         2.471889         2.354137        -0.898810
 C         1.277112         1.893565        -0.111271
 C         0.172368         1.664657        -1.203937
 C         0.766787         1.912073        -2.528352
 O         1.077246         3.359631        -2.676844
 C         1.680435         0.643393         0.677769
 O         1.099053         0.303713         1.684589
 H         4.156815         2.694095        -3.319518
 H         3.497371         0.986710        -3.344975
 H         2.785974         2.186723        -4.353242
 H         3.231101         1.604526        -0.768074
 H         2.634280         3.375737        -0.641417
 H         1.019939         2.543469         0.755075
 H        -0.359321         0.612669        -1.130483
 H        -0.655998         2.440587        -1.142732
 H         0.289327         1.514138        -3.568536
 H         2.410981        -0.051774         0.186887
