19
Iteration:    91charge 0 multiplicity 1
 C         3.249708         2.512200        -3.424980
 C         2.210141         2.442969        -2.346525
 C         2.645539         2.339969        -0.830179
 C         1.374119         1.872150        -0.216833
 C         0.413856         1.123152        -1.167920
 C         0.849185         1.769699        -2.478562
 O         0.930958         3.240573        -2.561253
 C         1.538562         1.112942         0.995816
 O         0.724451         0.200759         1.226187
 H         3.719797         3.448031        -3.348940
 H         4.053170         1.776288        -3.316777
 H         2.778535         2.560632        -4.462927
 H         3.385624         1.518871        -0.817689
 H         3.035823         3.268860        -0.401515
 H         0.823779         2.771812         0.107421
 H         0.614847         0.054359        -1.163671
 H        -0.644535         1.225779        -0.925471
 H         0.560299         1.405717        -3.400566
 H         2.367122         1.441169         1.745326
