19
Iteration:  1158
 C         3.336979         2.447802        -3.294262
 C         2.127201         2.386680        -2.388153
 C         2.302465         2.491021        -0.870597
 C         1.179976         1.749164        -0.241198
 C         0.325820         1.180693        -1.394673
 C         0.833279         1.795611        -2.717990
 O         0.996048         3.268457        -2.635583
 C         1.599243         0.694312         0.795074
 O         1.146689         0.540713         1.866656
 H         3.952701         3.295190        -2.964124
 H         3.954120         1.632178        -3.188100
 H         3.032082         2.586216        -4.385248
 H         3.318275         2.133302        -0.769952
 H         2.355636         3.485473        -0.508676
 H         0.770148         2.487120         0.457546
 H         0.431012         0.075599        -1.546528
 H        -0.706174         1.577030        -1.255000
 H         0.287236         1.411587        -3.592656
 H         2.429343         0.046690         0.438851
