19
Iteration:  1944
 C         3.197276         2.967714        -3.312502
 C         2.117149         2.482833        -2.284968
 C         2.478059         2.148444        -0.895413
 C         1.240922         1.461543        -0.372569
 C         0.631716         0.717673        -1.653161
 C         0.967643         1.720140        -2.708774
 O         0.753615         3.206902        -2.395751
 C         1.516873         0.723795         0.867379
 O         0.995325         1.032792         1.892356
 H         3.700263         3.880370        -2.857367
 H         3.988706         2.232056        -3.522867
 H         2.734566         3.048813        -4.292906
 H         3.388930         1.667358        -0.920316
 H         2.744765         3.014906        -0.357799
 H         0.716912         2.343966        -0.122630
 H         1.092327        -0.260141        -1.763079
 H        -0.524862         0.823974        -1.553966
 H         0.724160         1.577628        -3.891565
 H         2.210691        -0.198606         0.711390
