19
Iteration:  4965
 C         3.428944         2.824583        -2.220252
 C         1.878047         2.606049        -2.115112
 C         1.170253         3.187351        -0.817286
 C         0.642685         1.847964        -0.190665
 C         0.316611         0.951926        -1.350640
 C         1.271364         1.298480        -2.455012
 O         1.092716         2.469972        -3.290017
 C         1.628521         1.263908         0.832925
 O         2.246484         0.230009         0.828693
 H         3.809273         3.845038        -2.281247
 H         4.073578         2.308211        -1.447075
 H         3.758797         2.539909        -3.181570
 H         2.027442         3.600525        -0.180362
 H         0.468217         3.793051        -1.184576
 H        -0.214279         2.024499         0.518908
 H         0.342807        -0.068691        -1.204960
 H        -0.698172         1.147670        -1.739141
 H         1.802484         0.363825        -2.835916
 H         1.769932         2.066802         1.687681
