19
Iteration:  2687charge 0 multiplicity 1
 C         3.278774         2.967386        -3.303736
 C         2.126247         2.612996        -2.310615
 C         2.259470         2.571551        -0.763163
 C         1.141710         1.596093        -0.320409
 C         0.506715         0.864650        -1.505622
 C         1.134378         1.518224        -2.701200
 O         0.811601         3.020089        -2.815737
 C         1.485966         0.632352         0.857854
 O         1.167384         0.756773         2.011597
 H         3.963671         3.699744        -2.923744
 H         3.866646         2.044570        -3.401975
 H         2.726795         3.170806        -4.193764
 H         3.267594         2.314430        -0.478219
 H         1.840263         3.689163        -0.554209
 H         0.381242         2.336403         0.149719
 H         0.823989        -0.158145        -1.536729
 H        -0.630537         1.029102        -1.565643
 H         1.121106         0.999847        -3.729141
 H         2.342473        -0.096827         0.705312
