19
Iteration:  4332charge 0 multiplicity 1
 C         3.202589         3.302081        -2.946294
 C         2.027167         2.631922        -2.280396
 C         1.832390         2.915321        -0.789815
 C         1.009450         1.724633        -0.230398
 C         0.936525         0.720539        -1.430508
 C         1.414056         1.361741        -2.708248
 O         0.796453         2.695492        -3.055444
 C         1.449092         1.199003         1.120405
 O         1.232962         0.075628         1.497192
 H         3.143330         4.386020        -2.632694
 H         4.077414         2.644061        -2.757357
 H         2.982992         3.248235        -3.977562
 H         2.846456         3.019073        -0.441515
 H         1.329508         3.774406        -0.651521
 H        -0.026301         2.022195         0.031953
 H         1.696703         0.073810        -1.220439
 H        -0.027999         0.240801        -1.561302
 H         1.662274         0.646442        -3.516517
 H         1.957039         1.926353         1.854807
