19
Iteration:  2841charge 0 multiplicity 1
 C         3.426667         2.815680        -2.733615
 C         2.077570         2.400075        -2.272542
 C         1.891260         2.809576        -0.765526
 C         0.755051         1.823046        -0.212331
 C         0.212771         1.087823        -1.498428
 C         1.045896         1.467736        -2.711904
 O         0.984719         2.796500        -2.967242
 C         1.626530         0.787261         0.552853
 O         1.766376         0.634251         1.739097
 H         3.699022         3.866013        -2.436349
 H         4.095195         2.006317        -2.380511
 H         3.486618         2.800035        -3.777195
 H         2.783399         2.749305        -0.152560
 H         1.635793         3.999890        -0.718973
 H        -0.121907         2.182662         0.420805
 H         0.315703         0.008058        -1.378328
 H        -0.929261         1.050803        -1.560887
 H         1.060416         0.716245        -3.464465
 H         2.117149         0.044290        -0.180297
