19
Iteration:    89
 C         3.247784         2.520703        -3.418814
 C         2.197502         2.437667        -2.336885
 C         2.659545         2.346908        -0.830145
 C         1.374138         1.877161        -0.209861
 C         0.411468         1.122987        -1.174291
 C         0.848419         1.779632        -2.479462
 O         0.934459         3.222714        -2.568943
 C         1.544717         1.086424         0.986313
 O         0.712740         0.212194         1.233096
 H         3.754550         3.461585        -3.360890
 H         4.033078         1.774353        -3.324848
 H         2.770175         2.578404        -4.454946
 H         3.337760         1.572312        -0.838505
 H         3.085159         3.260896        -0.450439
 H         0.822957         2.761258         0.111104
 H         0.664726         0.152910        -1.134310
 H        -0.622719         1.150681        -0.917817
 H         0.548042         1.430907        -3.414494
 H         2.401710         1.449230         1.740771
