19
Iteration:   756charge 0 multiplicity 1
 C         3.341768         2.259817        -3.112867
 C         2.076374         2.512147        -2.330998
 C         2.291302         2.394594        -0.799066
 C         0.959227         1.896826        -0.175000
 C         0.095163         1.392370        -1.393964
 C         0.940541         1.707841        -2.615827
 O         1.038118         3.283431        -2.759889
 C         1.376582         0.647191         0.603340
 O         1.638521         0.556761         1.758205
 H         4.149325         2.961725        -2.953037
 H         3.560410         1.148080        -3.100189
 H         3.130778         2.702438        -4.051026
 H         3.105918         1.662592        -0.746681
 H         2.662966         3.393041        -0.359298
 H         0.538470         2.754201         0.412005
 H         0.067561         0.231943        -1.412135
 H        -0.919252         1.851500        -1.324334
 H         0.988272         0.982123        -3.455464
 H         1.500806        -0.230223        -0.053989
