19
Iteration:  4704
 C         3.273861         3.244346        -2.711892
 C         2.009633         2.681879        -2.198962
 C         1.612645         3.009163        -0.806596
 C         0.756919         1.849143        -0.234682
 C         0.470823         0.854323        -1.408651
 C         1.485673         1.276482        -2.449738
 O         0.955468         2.452227        -3.164968
 C         1.469170         1.242937         1.004213
 O         1.768755         0.068762         1.151811
 H         3.173256         4.313574        -2.676987
 H         4.199229         2.855573        -2.211347
 H         3.389010         2.911604        -3.683333
 H         2.528268         3.028260        -0.288251
 H         1.074273         3.978236        -0.709666
 H        -0.148571         2.072215         0.293143
 H         0.532534        -0.220353        -1.019086
 H        -0.598483         1.014016        -1.789185
 H         2.088685         0.441116        -2.880407
 H         1.818333         1.946609         1.844999
