19
Iteration:   882charge 0 multiplicity 1
 C         3.420263         2.190207        -3.026500
 C         2.199658         2.267303        -2.167867
 C         2.134510         2.833078        -0.772805
 C         0.924001         1.994678        -0.184168
 C        -0.022065         1.676219        -1.287268
 C         0.836607         1.698797        -2.476473
 O         1.099491         3.065572        -2.881815
 C         1.509080         0.639598         0.414899
 O         1.690009         0.295596         1.570494
 H         3.770723         3.248182        -2.997339
 H         4.280174         1.617247        -2.689992
 H         3.031543         1.854804        -4.033965
 H         3.141953         2.733248        -0.163356
 H         2.110490         3.884212        -0.931399
 H         0.405787         2.323086         0.753714
 H        -0.318406         0.606134        -1.119978
 H        -0.930594         2.305914        -1.317645
 H         0.854361         0.960514        -3.237262
 H         1.587943        -0.300301        -0.255141
