19
Iteration:  2484charge 0 multiplicity 1
 C         3.224046         2.969351        -3.352114
 C         2.087889         2.578524        -2.415383
 C         2.376640         2.442565        -0.935468
 C         1.215013         1.707931        -0.237413
 C         0.562671         0.926888        -1.397416
 C         1.016416         1.497796        -2.702375
 O         0.822719         3.100336        -2.724274
 C         1.660981         0.823885         0.974687
 O         0.898590         0.519165         1.947532
 H         4.058037         3.730460        -3.003762
 H         3.755511         1.972882        -3.516324
 H         3.083114         3.351111        -4.345929
 H         3.317704         1.924978        -0.775088
 H         2.395669         3.467679        -0.520667
 H         0.370869         2.421343        -0.004222
 H         1.215944         0.046844        -1.570921
 H        -0.558024         0.711495        -1.292531
 H         0.894502         1.130548        -3.739998
 H         2.753001         0.580771         1.027699
