19
Iteration:  2228
 C         3.493209         2.560082        -2.916707
 C         2.071228         2.486206        -2.222579
 C         1.979577         2.921405        -0.792444
 C         0.972029         1.873474        -0.167094
 C         0.148975         1.189265        -1.366435
 C         0.969563         1.489190        -2.588953
 O         0.929853         2.962614        -2.893701
 C         1.715554         0.692725         0.520536
 O         1.530491         0.447089         1.630426
 H         3.641630         3.611493        -3.186198
 H         4.233579         2.062445        -2.283676
 H         3.613834         2.046661        -3.933533
 H         3.013768         2.895409        -0.376202
 H         1.659683         3.910029        -0.781636
 H         0.263746         2.380890         0.402635
 H         0.023946         0.098869        -1.197752
 H        -0.883493         1.616699        -1.408403
 H         1.043647         0.805392        -3.409334
 H         2.400678         0.077817        -0.181787
