19
Iteration:  4554
 C         3.045248         3.603226        -3.094698
 C         2.088010         2.623418        -2.315017
 C         2.238219         2.568716        -0.784211
 C         0.924105         1.679221        -0.420662
 C         1.041559         0.561658        -1.487552
 C         1.514836         1.380125        -2.719952
 O         0.742623         2.585604        -2.696570
 C         1.016737         1.304499         1.038589
 O         1.298561         0.261565         1.590882
 H         3.192492         4.613485        -2.496682
 H         4.143957         3.255322        -3.161293
 H         2.475642         3.716458        -4.087239
 H         3.114335         2.039923        -0.395295
 H         2.347436         3.470986        -0.293657
 H         0.030238         2.343404        -0.602335
 H         1.690672        -0.198052        -1.210027
 H         0.108525         0.051987        -1.587739
 H         1.674348         0.987946        -3.733850
 H         0.707422         2.094032         1.687758
