19
Iteration:  2548
 C         2.956160         3.107298        -3.509758
 C         2.182957         2.552619        -2.390632
 C         2.703120         2.268378        -0.881118
 C         1.381018         1.668700        -0.342706
 C         0.860285         0.730474        -1.461200
 C         1.101886         1.604049        -2.647828
 O         0.770588         3.011356        -2.385868
 C         1.443253         0.853136         0.937840
 O         0.621687         0.778332         1.840902
 H         3.261364         4.268465        -3.374481
 H         4.016768         2.675478        -3.680277
 H         2.303582         2.956962        -4.378739
 H         3.260030         1.319950        -1.112711
 H         3.214826         3.118890        -0.463938
 H         0.586558         2.495966        -0.276167
 H         1.361398        -0.244198        -1.519173
 H        -0.274352         0.718568        -1.173034
 H         0.721673         1.156023        -3.596384
 H         2.277807         0.104388         0.893835
