19
Iteration:  2273charge 0 multiplicity 1
 C         3.380472         2.564936        -2.946653
 C         2.073107         2.564368        -2.268305
 C         1.941113         2.881930        -0.768176
 C         0.953081         1.807197        -0.180330
 C         0.104920         1.238062        -1.427125
 C         0.985739         1.553066        -2.703491
 O         1.021961         2.954827        -3.033958
 C         1.758730         0.766260         0.662389
 O         1.571731         0.319693         1.833198
 H         3.756327         3.595358        -2.972559
 H         3.956073         1.750851        -2.576508
 H         3.108856         2.350443        -4.046745
 H         2.830598         2.568667        -0.164530
 H         1.767534         3.873348        -0.519650
 H         0.295350         2.307861         0.482460
 H         0.002061         0.164808        -1.377787
 H        -0.882615         1.751829        -1.657156
 H         1.187742         0.893753        -3.492462
 H         2.695261         0.446643         0.144657
