19
Iteration:  2134charge 0 multiplicity 1
 C         3.478409         2.596726        -2.941790
 C         2.115009         2.513322        -2.286652
 C         2.040352         2.832436        -0.787727
 C         0.962160         1.826202        -0.211904
 C         0.126826         1.158414        -1.322684
 C         0.972076         1.559950        -2.640992
 O         0.890255         2.960214        -2.959458
 C         1.745035         0.665968         0.572434
 O         1.478980         0.469575         1.704879
 H         3.876429         3.576260        -2.710886
 H         4.098643         1.765991        -2.614693
 H         3.576172         2.575141        -4.079539
 H         2.918536         2.780934        -0.176124
 H         1.646467         3.873310        -0.581108
 H         0.376785         2.310991         0.639905
 H        -0.082804         0.098500        -1.255182
 H        -0.879207         1.665306        -1.327917
 H         1.128082         0.946502        -3.482638
 H         2.728881         0.300904         0.114732
