19
Iteration:  4749charge 0 multiplicity 1
 C         3.432649         2.947286        -2.581276
 C         2.004475         2.633569        -2.160931
 C         1.341086         3.108048        -0.859942
 C         0.721459         1.816538        -0.261140
 C         0.493362         0.761273        -1.353987
 C         1.341824         1.339377        -2.456827
 O         0.948528         2.636298        -3.113500
 C         1.572749         1.280185         0.916135
 O         1.915887         0.133561         1.070257
 H         3.499336         4.019801        -2.707916
 H         4.116001         2.655092        -1.754904
 H         3.914645         2.478022        -3.313807
 H         2.055754         3.533681        -0.216667
 H         0.545025         3.822793        -1.277159
 H        -0.153397         2.285041         0.122807
 H         0.917198        -0.309857        -1.132239
 H        -0.612279         0.579268        -1.614703
 H         1.850402         0.667388        -3.184198
 H         1.737624         1.900349         1.860220
