19
Iteration:  4016charge 0 multiplicity 1
 C         3.271905         3.214917        -2.926825
 C         2.037078         2.645534        -2.280788
 C         1.708609         3.025998        -0.783109
 C         0.853742         1.759804        -0.177060
 C         0.756169         0.694898        -1.404166
 C         1.400172         1.418141        -2.660144
 O         0.895552         2.648992        -3.114142
 C         1.350691         1.207607         1.130094
 O         1.551840         0.028007         1.413824
 H         2.883013         4.194401        -3.341676
 H         3.999670         3.287826        -1.986833
 H         3.703962         2.567236        -3.728401
 H         2.703206         3.126033        -0.331801
 H         1.045032         3.957466        -0.833593
 H        -0.167241         2.051230        -0.019390
 H         1.376699        -0.201491        -1.158154
 H        -0.242123         0.291780        -1.535474
 H         1.896416         0.923689        -3.522311
 H         1.681604         1.946686         1.895194
