19
Iteration:  2019
 C         3.345243         2.879849        -3.163456
 C         2.113657         2.602773        -2.417636
 C         2.262536         2.409100        -0.826955
 C         1.046388         1.788945        -0.134381
 C         0.390333         1.078956        -1.437004
 C         1.051491         1.505942        -2.719451
 O         0.819825         3.059500        -2.869985
 C         1.508870         0.696732         0.773520
 O         1.296305         0.591889         1.920867
 H         3.619866         3.948228        -2.970404
 H         4.187665         2.176728        -2.882295
 H         3.178850         2.838097        -4.204012
 H         3.283006         1.907637        -0.516866
 H         2.411252         3.411929        -0.360617
 H         0.555540         2.547945         0.471741
 H         0.589585        -0.082876        -1.275273
 H        -0.745446         1.051397        -1.395350
 H         0.883670         0.835173        -3.683624
 H         2.121171         0.014691         0.141449
