19
Iteration:  2633
 C         3.155805         3.064677        -3.302091
 C         2.059779         2.555504        -2.367504
 C         2.447612         2.246933        -0.905638
 C         1.233314         1.682621        -0.310398
 C         0.761913         0.708519        -1.474842
 C         1.069569         1.582676        -2.722702
 O         0.748752         3.005313        -2.524614
 C         1.520745         0.900288         0.847165
 O         0.890456         0.823908         1.862531
 H         3.466955         4.026345        -2.864474
 H         4.050608         2.426539        -3.171530
 H         2.886773         3.132625        -4.344338
 H         3.331526         1.576739        -0.833238
 H         3.059847         3.091409        -0.361269
 H         0.470785         2.519344        -0.079508
 H         1.183611        -0.280876        -1.463216
 H        -0.382009         0.574589        -1.307345
 H         0.849155         1.167921        -3.747664
 H         2.420169         0.225918         0.642830
