19
Iteration:   667charge 0 multiplicity 1
 C         3.178323         2.570387        -3.507925
 C         2.202204         2.479050        -2.410660
 C         2.574933         1.961887        -1.048442
 C         1.193995         1.727011        -0.223037
 C         0.373418         1.155801        -1.504048
 C         0.875954         1.884910        -2.677752
 O         0.985284         3.370834        -2.416591
 C         1.303060         0.625591         0.846346
 O         1.175547         0.829385         2.050907
 H         3.784793         3.489523        -3.607910
 H         3.883710         1.793243        -3.072472
 H         2.822590         2.394281        -4.526136
 H         3.192826         1.054080        -1.128884
 H         3.263181         2.496758        -0.309912
 H         0.674277         2.672047         0.096236
 H         0.453145         0.015425        -1.754831
 H        -0.654037         1.497960        -1.296219
 H         0.595182         1.635752        -3.653657
 H         1.558130        -0.466796         0.468982
