19
Iteration:  3929charge 0 multiplicity 1
 C         3.197365         3.437884        -2.926507
 C         2.062366         2.588793        -2.261556
 C         1.912378         2.780515        -0.768318
 C         0.814718         1.836504        -0.325381
 C         0.754539         0.629738        -1.367095
 C         1.485843         1.295691        -2.584141
 O         0.833824         2.542516        -2.959282
 C         1.214358         1.315679         1.068357
 O         1.557227         0.174238         1.306614
 H         3.396263         4.335605        -2.361596
 H         4.248212         3.047743        -2.911485
 H         3.020014         3.484468        -3.920466
 H         2.955740         2.622396        -0.218929
 H         1.616322         3.877823        -0.441101
 H        -0.212711         2.269088        -0.355415
 H         1.225624        -0.296938        -1.057291
 H        -0.217700         0.326174        -1.643767
 H         1.609689         0.596493        -3.418598
 H         1.379992         2.229226         1.756280
