19
Iteration:  1580
 C         3.450757         2.546399        -2.988383
 C         2.094004         2.397408        -2.236560
 C         2.027838         2.780307        -0.760234
 C         1.013232         1.796251        -0.193214
 C         0.007845         1.394123        -1.395454
 C         0.916070         1.569297        -2.593987
 O         1.003147         2.981528        -2.951511
 C         1.710506         0.637956         0.568167
 O         1.577145         0.467662         1.701276
 H         3.904902         3.411896        -2.582431
 H         4.158990         1.731013        -2.673671
 H         3.377563         2.768730        -4.118308
 H         2.970828         2.722846        -0.159333
 H         1.647147         3.886176        -0.771341
 H         0.416226         2.124114         0.705908
 H        -0.355580         0.341590        -1.352056
 H        -0.880250         2.056539        -1.295809
 H         1.099565         0.910896        -3.442483
 H         2.315358         0.004767        -0.086994
