19
Iteration:  4514charge 0 multiplicity 1
 C         2.956383         3.584874        -3.079903
 C         2.141329         2.644228        -2.292823
 C         2.278676         2.645612        -0.784730
 C         1.079975         1.758346        -0.337321
 C         1.075183         0.602800        -1.418779
 C         1.494749         1.321215        -2.736404
 O         0.726302         2.602095        -2.838312
 C         1.052434         1.302158         1.140212
 O         1.166620         0.141077         1.529157
 H         3.073623         4.465420        -2.481351
 H         3.890427         3.141854        -3.299847
 H         2.465974         3.805685        -4.134476
 H         3.210481         2.084695        -0.588970
 H         2.195873         3.772048        -0.547963
 H         0.110790         2.306655        -0.408067
 H         1.833983        -0.266633        -1.125416
 H         0.069493         0.071917        -1.507472
 H         1.738452         0.795213        -3.636127
 H         0.746839         2.200591         1.816947
