19
Iteration:  1033charge 0 multiplicity 1
 C         3.401656         2.339237        -3.140682
 C         2.128025         2.473700        -2.325843
 C         2.297561         2.838006        -0.746154
 C         1.166567         2.021089        -0.028317
 C         0.110469         1.654373        -1.176687
 C         0.883210         1.637006        -2.481640
 O         0.963652         2.932956        -3.044981
 C         1.656464         0.670822         0.545371
 O         1.255125         0.152490         1.619156
 H         3.797792         3.331957        -3.201055
 H         4.071570         1.644313        -2.532829
 H         3.265818         1.995413        -4.080151
 H         3.185528         2.233324        -0.808009
 H         2.409900         3.862287        -0.452738
 H         0.422196         2.418005         0.631216
 H        -0.268934         0.643886        -0.874539
 H        -0.842731         2.224206        -1.133400
 H         0.776523         0.944980        -3.304913
 H         2.526693         0.327140        -0.160885
