19
Iteration:  3869
 C         3.197897         3.293833        -3.105251
 C         2.094727         2.691443        -2.243307
 C         2.044058         2.630444        -0.747114
 C         0.897748         1.687624        -0.362747
 C         0.980195         0.601479        -1.478585
 C         1.353524         1.417442        -2.658375
 O         0.762684         2.739291        -2.837082
 C         0.896199         1.194876         1.117001
 O         1.632461         0.356878         1.499324
 H         2.985957         4.398745        -3.211594
 H         4.063539         3.045055        -2.485275
 H         3.273174         3.054053        -4.300510
 H         2.935091         2.187285        -0.325902
 H         1.868592         3.579164        -0.296676
 H         0.025974         2.296672        -0.452968
 H         1.884187        -0.108766        -1.433331
 H        -0.051407         0.048863        -1.560846
 H         1.586098         0.831999        -3.591516
 H         0.113782         1.517505         1.826092
