19
Iteration:   594
 C         3.100708         2.795634        -3.574918
 C         2.222642         2.438765        -2.422088
 C         2.758426         1.728285        -1.124711
 C         1.404634         1.463364        -0.317977
 C         0.306923         1.128983        -1.465175
 C         0.837587         1.908293        -2.605048
 O         0.987276         3.294108        -2.288652
 C         1.481258         0.786329         0.958814
 O         0.799247         0.967730         1.959857
 H         4.053236         3.292279        -3.275689
 H         3.461276         1.823655        -4.061277
 H         2.664288         3.504229        -4.170449
 H         3.374804         0.804544        -1.365612
 H         3.601877         2.314420        -0.700140
 H         0.918442         2.434329        -0.059523
 H         0.290041         0.117700        -1.590629
 H        -0.681158         1.589391        -1.200034
 H         0.489179         1.505307        -3.676274
 H         2.454281         0.065147         1.034160
