19
Iteration:  3122charge 0 multiplicity 1
 C         3.255025         2.836524        -3.071793
 C         2.070533         2.562517        -2.336775
 C         2.029322         2.787697        -0.771234
 C         1.037610         1.783358        -0.181323
 C         0.488342         1.026451        -1.382232
 C         1.223192         1.479457        -2.609598
 O         0.808077         2.854031        -2.961992
 C         1.674945         0.755232         0.693403
 O         1.261404         0.538577         1.809110
 H         3.630947         3.881441        -3.078887
 H         4.134835         2.302259        -2.621858
 H         3.276244         2.643337        -4.071615
 H         3.179298         2.651021        -0.540391
 H         1.779850         3.742447        -0.491433
 H         0.288803         2.325502         0.365258
 H         0.607344        -0.078241        -1.321147
 H        -0.568930         0.998301        -1.434036
 H         1.361504         0.957040        -3.507622
 H         2.415429         0.128844         0.093477
