19
Iteration:  4566charge 0 multiplicity 1
 C         3.074874         3.497951        -3.073878
 C         2.167110         2.621291        -2.326165
 C         2.079699         2.574138        -0.725746
 C         0.962794         1.634620        -0.387886
 C         1.093561         0.558474        -1.503853
 C         1.446491         1.365797        -2.776851
 O         0.737317         2.696541        -2.713066
 C         1.005869         1.339816         1.097463
 O         1.341790         0.243490         1.571171
 H         2.867447         4.550843        -2.591275
 H         4.156919         3.169434        -3.182045
 H         2.759647         3.701009        -4.210476
 H         3.042574         2.131543        -0.459256
 H         1.893962         3.521196        -0.356754
 H         0.069575         2.299925        -0.545683
 H         1.876688        -0.065223        -1.169149
 H         0.228729         0.015864        -1.773081
 H         1.600991         0.892646        -3.734117
 H         0.843151         2.218708         1.684420
