19
Iteration:  4038charge 0 multiplicity 1
 C         3.274673         3.364580        -2.883125
 C         2.084462         2.629969        -2.213486
 C         1.770174         2.843119        -0.726594
 C         0.811049         1.756212        -0.356768
 C         0.681049         0.739474        -1.373167
 C         1.415341         1.294594        -2.562660
 O         0.861875         2.590145        -3.032369
 C         1.409984         1.271002         1.004315
 O         1.546318         0.129847         1.343243
 H         2.815855         4.340032        -3.303721
 H         4.129914         3.401298        -2.010324
 H         3.639689         2.762682        -3.765037
 H         2.777629         2.723435        -0.343018
 H         1.211997         3.829694        -0.543035
 H        -0.187670         2.099373        -0.156465
 H         1.117708        -0.244963        -1.021589
 H        -0.306982         0.531960        -1.750723
 H         1.744406         0.674537        -3.428654
 H         1.745230         2.154039         1.695503
