19
Iteration:   880
 C         3.397458         2.186766        -3.031276
 C         2.193890         2.271170        -2.166482
 C         2.146012         2.821302        -0.774268
 C         0.919337         1.997925        -0.177240
 C        -0.022089         1.678738        -1.284862
 C         0.861021         1.693557        -2.488173
 O         1.089290         3.071580        -2.882994
 C         1.506714         0.648288         0.418922
 O         1.698355         0.294049         1.570928
 H         3.756143         3.249563        -3.077527
 H         4.336680         1.553854        -2.590649
 H         3.105199         1.913671        -3.997152
 H         3.033158         2.645935        -0.054249
 H         2.145726         3.887934        -0.874232
 H         0.404687         2.392234         0.686370
 H        -0.302433         0.559370        -1.135815
 H        -0.935912         2.327482        -1.338027
 H         0.837438         0.935827        -3.276929
 H         1.579295        -0.278192        -0.284225
