19
Iteration:  4243charge 0 multiplicity 1
 C         3.117677         3.476612        -3.131165
 C         2.169922         2.619448        -2.273158
 C         2.103128         2.671678        -0.768013
 C         0.902995         1.774312        -0.318973
 C         0.898808         0.664711        -1.365404
 C         1.428388         1.343151        -2.666756
 O         0.801717         2.617479        -2.899317
 C         1.001232         1.254526         1.138998
 O         1.463664         0.147371         1.453181
 H         2.697482         4.508583        -3.035819
 H         4.126808         3.393315        -2.767276
 H         3.096592         3.284963        -4.236802
 H         3.110850         2.382859        -0.290356
 H         2.092389         3.635023        -0.348207
 H         0.069071         2.565323        -0.350698
 H         1.565464        -0.101231        -1.000755
 H        -0.168328         0.415138        -1.596624
 H         1.741440         0.753260        -3.552486
 H         0.532612         1.849035         1.947823
