19
Iteration:   596
 C         3.108066         2.804708        -3.568270
 C         2.215489         2.433400        -2.426321
 C         2.763719         1.729079        -1.133698
 C         1.392994         1.461638        -0.310833
 C         0.286898         1.120003        -1.458080
 C         0.832604         1.908109        -2.605419
 O         1.007472         3.288655        -2.285682
 C         1.487430         0.781047         0.965059
 O         0.803546         0.975108         1.956370
 H         4.047949         3.275908        -3.311300
 H         3.403128         1.904227        -3.981020
 H         2.656693         3.499394        -4.240239
 H         3.452064         0.926311        -1.368511
 H         3.523942         2.333818        -0.735957
 H         0.951633         2.425309        -0.046101
 H         0.260007         0.094412        -1.595637
 H        -0.688494         1.591503        -1.245902
 H         0.551037         1.483377        -3.679883
 H         2.377122         0.025206         0.985934
