19
Iteration:  1931charge 0 multiplicity 1
 C         3.118746         2.987046        -3.254680
 C         2.110082         2.538857        -2.376652
 C         2.580519         2.071984        -0.954549
 C         1.250303         1.480604        -0.415985
 C         0.662481         0.768248        -1.622987
 C         0.922519         1.785731        -2.755725
 O         0.801199         3.142152        -2.373290
 C         1.487931         0.730330         0.864682
 O         0.962779         1.061267         1.963114
 H         3.642361         3.894015        -2.931201
 H         3.830987         2.110965        -3.201847
 H         2.786277         3.330003        -4.199206
 H         3.277834         1.256547        -0.969976
 H         2.878301         2.920941        -0.320161
 H         0.416499         2.170944        -0.155206
 H         1.235694        -0.159401        -2.001892
 H        -0.319979         0.260485        -1.473809
 H         0.767285         1.417313        -3.839034
 H         2.225748        -0.171786         0.899121
