19
Iteration:  1201
 C         3.276436         2.754719        -3.422927
 C         2.163664         2.510610        -2.355394
 C         2.500898         2.134792        -0.918785
 C         1.179312         1.724435        -0.278633
 C         0.377262         1.141737        -1.436506
 C         0.941576         1.718717        -2.720340
 O         0.935409         3.191904        -2.581864
 C         1.398188         0.660913         0.841700
 O         1.132028         0.759136         2.008078
 H         3.839420         3.660315        -3.098887
 H         3.939538         1.941310        -3.622300
 H         2.609999         3.029642        -4.343624
 H         3.163444         1.188064        -0.956540
 H         2.985103         2.883293        -0.320527
 H         0.596163         2.529396         0.224442
 H         0.410561        -0.018218        -1.481740
 H        -0.729800         1.435697        -1.265021
 H         0.865383         1.338767        -3.744821
 H         1.762465        -0.325863         0.331582
