19
Iteration:   710charge 0 multiplicity 1
 C         3.287232         2.504453        -3.295881
 C         2.150905         2.298194        -2.418887
 C         2.390957         2.180854        -0.886759
 C         1.057468         1.688039        -0.268250
 C         0.088413         1.301155        -1.376154
 C         0.809337         1.859859        -2.668021
 O         1.161192         3.313854        -2.627089
 C         1.426120         0.593985         0.707315
 O         1.409623         0.749556         1.925743
 H         3.660473         3.504530        -3.098167
 H         3.981064         1.756987        -2.994255
 H         3.119788         2.713021        -4.350850
 H         3.258129         1.620220        -0.545105
 H         2.699303         3.233159        -0.675669
 H         0.743443         2.496975         0.432255
 H         0.121283         0.182885        -1.424006
 H        -0.878577         1.769206        -1.381336
 H         0.474273         1.656433        -3.630218
 H         1.743034        -0.440514         0.410840
