19
Iteration:    58
 C         3.276473         2.638660        -3.505063
 C         2.157597         2.447605        -2.445181
 C         2.571210         2.374319        -0.914577
 C         1.377034         1.914080        -0.135667
 C         0.556314         1.152058        -1.206414
 C         0.972733         1.722163        -2.571347
 O         0.928782         3.245473        -2.584844
 C         1.520623         0.849061         0.986612
 O         0.582303         0.267719         1.557771
 H         3.797785         3.444969        -3.138986
 H         3.960534         1.794467        -3.659583
 H         2.867459         2.908133        -4.567741
 H         3.472144         1.675854        -0.778083
 H         2.964894         3.350108        -0.592189
 H         0.777499         2.799251         0.106171
 H         0.717242         0.028515        -1.012748
 H        -0.484260         1.352802        -1.013969
 H         0.614043         1.384122        -3.438103
 H         2.500234         0.487960         1.063907
