19
Iteration:  1648
 C         3.373294         2.392101        -3.114028
 C         2.118113         2.491865        -2.267326
 C         1.963847         2.846710        -0.776039
 C         0.962830         1.904648        -0.070065
 C         0.287052         1.295549        -1.329221
 C         0.978655         1.670220        -2.599081
 O         0.969017         3.078599        -2.956585
 C         1.702143         0.769268         0.596030
 O         1.439242         0.256826         1.707425
 H         3.757591         3.391801        -3.543544
 H         4.228785         2.027092        -2.488970
 H         3.179706         1.693433        -3.923131
 H         2.994050         2.729266        -0.272231
 H         1.625378         3.888949        -0.621568
 H         0.314584         2.467809         0.611851
 H         0.483053         0.162233        -1.228256
 H        -0.867127         1.326860        -1.367143
 H         1.261026         0.848596        -3.348942
 H         2.434173         0.265765        -0.087563
