19
Iteration:  3325charge 0 multiplicity 1
 C         3.011583         3.247264        -3.417021
 C         2.106889         2.553016        -2.367541
 C         2.539293         2.343972        -1.011186
 C         1.313992         1.593804        -0.233625
 C         0.930642         0.704745        -1.388721
 C         1.123995         1.549844        -2.697902
 O         0.751899         2.890691        -2.571335
 C         1.553708         0.922532         1.038034
 O         0.626168         0.719712         1.794503
 H         3.094331         4.206800        -2.990417
 H         4.009334         2.829488        -3.503972
 H         2.530246         3.387627        -4.428442
 H         3.497593         1.684336        -1.059302
 H         2.817280         3.379532        -0.502175
 H         0.539715         2.463399        -0.129003
 H         1.561141        -0.169333        -1.363459
 H        -0.117508         0.487177        -1.309795
 H         1.070622         1.038453        -3.658912
 H         2.531235         0.553526         1.353857
