19
Iteration:  2409charge 0 multiplicity 1
 C         3.427126         2.748673        -3.156420
 C         2.153173         2.529896        -2.356618
 C         2.210870         2.740479        -0.825455
 C         1.176444         1.765207        -0.224930
 C         0.334316         1.055261        -1.271605
 C         0.973423         1.607047        -2.578243
 O         0.775979         2.992006        -2.894727
 C         1.668301         0.649960         0.657458
 O         1.175460         0.501051         1.809079
 H         3.572401         3.829593        -3.190864
 H         4.359820         2.434231        -2.704791
 H         3.421875         2.428754        -4.146090
 H         3.210975         2.703193        -0.326421
 H         1.682422         3.760445        -0.705072
 H         0.502324         2.370508         0.432526
 H         0.673648         0.012169        -1.198005
 H        -0.763996         1.165187        -1.390500
 H         0.976628         0.996088        -3.520785
 H         2.380528        -0.137427         0.221570
