19
Iteration:  3442charge 0 multiplicity 1
 C         3.351387         3.132816        -2.976560
 C         2.058735         2.560572        -2.324016
 C         2.038135         2.691922        -0.828937
 C         0.948950         1.622116        -0.343373
 C         0.456029         0.841554        -1.542614
 C         1.231049         1.441620        -2.679507
 O         0.801479         2.773228        -2.971948
 C         1.486217         0.703443         0.798847
 O         1.469340         0.789477         1.998592
 H         3.638624         4.157759        -2.570944
 H         4.233444         2.510946        -2.734267
 H         3.367231         3.213060        -4.178765
 H         3.141683         2.572364        -0.558940
 H         1.788216         3.652851        -0.463697
 H         0.099009         2.183088         0.131058
 H         0.715909        -0.217601        -1.360966
 H        -0.645887         1.080235        -1.641386
 H         1.206275         0.833103        -3.573572
 H         1.849030        -0.307428         0.313016
