19
Iteration:   786charge 0 multiplicity 1
 C         3.426943         2.197253        -3.167475
 C         2.172943         2.404549        -2.309335
 C         2.256585         2.560024        -0.634772
 C         0.939232         1.762336        -0.150653
 C        -0.002645         1.513572        -1.394588
 C         0.800672         1.792350        -2.659389
 O         1.064518         3.259020        -2.878071
 C         1.419900         0.556403         0.583204
 O         1.707047         0.540670         1.784796
 H         4.208207         2.970913        -2.873364
 H         3.901305         1.213539        -3.156329
 H         2.975735         2.456311        -4.306744
 H         3.242692         2.480696        -0.150500
 H         2.053745         3.658550        -0.492680
 H         0.507919         2.507215         0.583944
 H        -0.169063         0.463033        -1.535293
 H        -0.983899         1.944454        -1.252938
 H         0.783887         1.119702        -3.492171
 H         1.560206        -0.424543        -0.003016
