19
Iteration:  2944charge 0 multiplicity 1
 C         3.464855         2.691227        -2.681538
 C         2.054261         2.474893        -2.207974
 C         1.767016         2.863486        -0.776646
 C         0.837729         1.779031        -0.181200
 C         0.179334         1.071442        -1.474555
 C         1.115255         1.477676        -2.643481
 O         0.877635         2.849538        -3.052077
 C         1.682657         0.785523         0.487171
 O         1.770995         0.612936         1.681646
 H         3.748210         3.705318        -2.819887
 H         4.141659         2.350405        -1.918255
 H         3.845253         2.001644        -3.535944
 H         2.844796         3.056197        -0.266922
 H         1.313915         3.903081        -0.690207
 H         0.175003         2.157807         0.541913
 H         0.180188        -0.035447        -1.359951
 H        -0.749180         1.601420        -1.546913
 H         1.324556         0.650456        -3.436461
 H         2.165318         0.100185        -0.283106
