19
Iteration:  3265charge 0 multiplicity 1
 C         2.922574         3.200904        -3.465749
 C         2.123210         2.548973        -2.395101
 C         2.618952         2.438249        -0.935276
 C         1.428801         1.725583        -0.236580
 C         0.993849         0.667819        -1.346732
 C         1.057288         1.499530        -2.618400
 O         0.749497         2.914822        -2.477885
 C         1.568381         0.864723         1.014568
 O         0.513643         0.711182         1.646616
 H         3.500267         4.133445        -3.093463
 H         3.893477         2.629192        -3.660400
 H         2.489385         3.468765        -4.397588
 H         3.519158         1.822940        -0.885886
 H         2.858348         3.394803        -0.614753
 H         0.592638         2.386315        -0.083692
 H         1.557900        -0.306325        -1.453582
 H        -0.022807         0.222602        -1.265707
 H         0.826726         1.060908        -3.573585
 H         2.558934         0.436033         1.172788
