19
Iteration:  3299
 C         2.869040         3.311987        -3.561962
 C         2.188021         2.555949        -2.324164
 C         2.704731         2.386013        -0.859809
 C         1.423849         1.685241        -0.269145
 C         0.909188         0.663533        -1.452229
 C         1.184350         1.518023        -2.627526
 O         0.730900         2.803429        -2.468946
 C         1.491752         0.928694         0.987308
 O         0.542745         0.705006         1.736991
 H         3.242429         4.318003        -3.162567
 H         3.673647         2.595433        -3.897756
 H         2.284519         3.449322        -4.519682
 H         3.564602         1.706217        -0.750419
 H         2.999281         3.277789        -0.390782
 H         0.674948         2.554895        -0.292593
 H         1.211719        -0.414173        -1.325170
 H        -0.191385         0.967532        -1.354867
 H         1.023290         1.007519        -3.628206
 H         2.434554         0.417159         1.370379
