19
Iteration:  1149
 C         3.341327         2.435830        -3.292625
 C         2.144474         2.403776        -2.411217
 C         2.370043         2.515438        -0.909645
 C         1.141697         1.827655        -0.182304
 C         0.342579         1.173598        -1.381152
 C         0.816618         1.800232        -2.616967
 O         0.980517         3.285831        -2.690101
 C         1.592750         0.707262         0.714234
 O         1.158958         0.459150         1.894332
 H         4.037153         3.230328        -2.992204
 H         3.760982         1.469254        -2.970330
 H         3.217538         2.382740        -4.367244
 H         3.233452         2.091357        -0.460341
 H         2.233339         3.583488        -0.759133
 H         0.390037         2.488458         0.295924
 H         0.312881         0.094519        -1.444249
 H        -0.712676         1.299931        -1.263618
 H         0.390280         1.487949        -3.609688
 H         2.482584         0.209099         0.300302
