19
Iteration:  1079
 C         3.438341         2.441132        -3.263669
 C         2.212367         2.391184        -2.379800
 C         2.266082         2.784629        -0.797493
 C         1.138824         1.945732        -0.121605
 C         0.169420         1.502697        -1.180842
 C         0.836629         1.644550        -2.542978
 O         1.005034         3.011549        -2.817672
 C         1.712526         0.614426         0.624779
 O         1.147354         0.295164         1.662994
 H         3.816087         3.464726        -3.256162
 H         4.082959         1.690190        -2.914616
 H         3.069740         2.208378        -4.285306
 H         3.226856         2.505093        -0.397746
 H         2.029856         3.806189        -0.933991
 H         0.700848         2.423753         0.758134
 H        -0.459680         0.576359        -1.136751
 H        -0.742224         2.195356        -1.181340
 H         0.586337         0.918281        -3.288142
 H         2.535479         0.017529         0.080675
