19
Iteration:  1206
 C         3.249644         2.831383        -3.446209
 C         2.182258         2.454537        -2.331622
 C         2.504938         2.092662        -0.973146
 C         1.176239         1.809952        -0.257380
 C         0.370225         1.089562        -1.458689
 C         0.944790         1.737682        -2.739135
 O         0.937567         3.180170        -2.552461
 C         1.360043         0.634939         0.808311
 O         1.133890         0.774896         2.058137
 H         3.899044         3.637527        -3.114948
 H         3.903357         1.909226        -3.467272
 H         2.725838         3.011157        -4.320666
 H         3.087929         1.209568        -0.978489
 H         3.154116         2.875730        -0.489685
 H         0.721033         2.610142         0.321724
 H         0.581621         0.046655        -1.616566
 H        -0.633275         1.332009        -1.282937
 H         0.905982         1.272379        -3.742999
 H         1.619064        -0.363009         0.427914
