19
Iteration:  2475charge 0 multiplicity 1
 C         3.242046         2.906137        -3.363152
 C         2.090129         2.598353        -2.440600
 C         2.308845         2.479169        -0.880794
 C         1.107514         1.721808        -0.230791
 C         0.579271         0.905600        -1.418716
 C         1.060678         1.575964        -2.718409
 O         0.854502         3.088851        -2.757767
 C         1.644597         0.858102         1.015831
 O         0.983446         0.489207         1.909399
 H         3.899837         3.612824        -2.866896
 H         3.895664         2.047992        -3.516932
 H         2.827467         3.234023        -4.295820
 H         3.175533         1.787747        -0.784375
 H         2.548549         3.462952        -0.311274
 H         0.438546         2.399491         0.271036
 H         0.930781        -0.166951        -1.282153
 H        -0.503492         0.793814        -1.376363
 H         0.824271         1.075027        -3.657838
 H         2.715355         0.578956         0.872024
