19
Iteration:  3635charge 0 multiplicity 1
 C         3.356215         2.997061        -2.684608
 C         2.006439         2.550632        -2.118595
 C         1.773817         2.735187        -0.700484
 C         0.650092         1.627025        -0.336986
 C         0.297330         0.858795        -1.617560
 C         1.322937         1.411914        -2.724752
 O         0.963315         2.725041        -3.019257
 C         1.219955         0.671750         0.837280
 O         2.155912         0.967281         1.523513
 H         3.379168         4.147333        -2.536430
 H         4.300614         2.603817        -2.094588
 H         3.488927         2.951621        -3.732320
 H         2.667222         2.378432        -0.090277
 H         1.382855         3.766592        -0.453089
 H        -0.300519         2.127784         0.078259
 H         0.553907        -0.277768        -1.453210
 H        -0.759346         1.007864        -1.842297
 H         1.741915         0.887029        -3.561900
 H         0.717090        -0.283543         0.780175
