19
Iteration:  4650charge 0 multiplicity 1
 C         3.169688         3.266575        -2.947172
 C         2.081311         2.611800        -2.229720
 C         1.772779         2.943976        -0.726142
 C         0.834499         1.827291        -0.270347
 C         0.845458         0.727087        -1.306955
 C         1.409033         1.325303        -2.550535
 O         0.908523         2.621060        -3.034215
 C         1.319296         1.243142         1.017428
 O         1.517638         0.067621         1.211673
 H         3.025328         4.349388        -2.970532
 H         4.136924         3.142069        -2.362841
 H         3.323206         2.909269        -3.894262
 H         2.701311         3.186633        -0.102820
 H         1.112711         3.943497        -0.612842
 H        -0.204843         2.066136         0.063260
 H         1.408096        -0.204957        -0.810962
 H        -0.223247         0.331057        -1.537737
 H         1.802737         0.563140        -3.270801
 H         1.495138         1.932073         1.821937
