19
Iteration:  4757
 C         3.457682         2.875882        -2.517644
 C         2.021254         2.630600        -2.168330
 C         1.348545         3.167793        -0.843792
 C         0.695531         1.850637        -0.233219
 C         0.490328         0.697199        -1.406867
 C         1.415403         1.335061        -2.532219
 O         0.889306         2.631828        -3.083151
 C         1.558662         1.310990         0.938883
 O         1.943636         0.154539         1.018169
 H         3.517097         3.963682        -2.690888
 H         3.953218         2.701358        -1.513605
 H         3.860187         2.413396        -3.453980
 H         1.957133         3.611800        -0.101630
 H         0.552573         3.771894        -1.132305
 H        -0.226586         2.099591         0.316240
 H         0.808637        -0.216996        -1.105006
 H        -0.578201         0.689712        -1.635387
 H         1.696152         0.496844        -3.198827
 H         1.878748         2.054105         1.704085
