19
Iteration:   100
 C         3.258824         2.511432        -3.450502
 C         2.193254         2.447963        -2.373206
 C         2.610548         2.288542        -0.918187
 C         1.309730         1.876835        -0.202956
 C         0.430308         1.137444        -1.190315
 C         0.898312         1.752372        -2.501973
 O         0.955839         3.282997        -2.497114
 C         1.437552         1.162886         1.085673
 O         0.825392         0.153808         1.221207
 H         3.716567         3.464104        -3.358971
 H         3.989652         1.716654        -3.305984
 H         2.824122         2.274885        -4.503998
 H         3.405479         1.680896        -0.719458
 H         2.878376         3.171705        -0.370496
 H         0.824757         2.821302         0.033060
 H         0.387467         0.159863        -1.275801
 H        -0.527546         1.545230        -0.994858
 H         0.612782         1.224647        -3.347133
 H         2.284625         1.431760         1.900244
