19
Iteration:  4040
 C         3.274262         3.367119        -2.889356
 C         2.076479         2.612982        -2.226168
 C         1.784411         2.850479        -0.720689
 C         0.807720         1.760329        -0.347130
 C         0.672264         0.729063        -1.386348
 C         1.426595         1.314508        -2.566067
 O         0.867957         2.564310        -3.007603
 C         1.398694         1.272981         0.991341
 O         1.550400         0.143427         1.336034
 H         2.826872         4.346627        -3.216145
 H         4.049650         3.409569        -2.040180
 H         3.619847         2.822443        -3.676489
 H         2.837372         2.677202        -0.323426
 H         1.229752         3.852401        -0.515028
 H        -0.232782         2.114040        -0.220841
 H         1.028137        -0.207768        -1.012202
 H        -0.300946         0.540639        -1.706272
 H         1.756759         0.714382        -3.451874
 H         1.786940         2.095686         1.649152
