19
Iteration:  1515charge 0 multiplicity 1
 C         3.437495         2.518143        -2.926778
 C         2.143701         2.458440        -2.260487
 C         2.081726         2.737577        -0.737668
 C         0.899033         1.791288        -0.213765
 C         0.151804         1.227051        -1.383536
 C         0.983218         1.627737        -2.631929
 O         0.931823         3.030553        -2.854258
 C         1.431618         0.613663         0.482867
 O         1.753319         0.598894         1.696802
 H         3.942038         3.376241        -2.696885
 H         3.957304         1.521443        -2.775547
 H         3.370219         2.678095        -4.045910
 H         3.008342         2.410428        -0.246133
 H         1.962550         3.795211        -0.473196
 H         0.251326         2.562859         0.198837
 H        -0.088192         0.127986        -1.429783
 H        -0.836253         1.755606        -1.306897
 H         1.064172         0.968586        -3.474226
 H         1.451125        -0.337490        -0.145974
