19
Iteration:    81
 C         3.231039         2.592845        -3.387190
 C         2.151038         2.422393        -2.307306
 C         2.676479         2.383573        -0.911906
 C         1.344613         1.925307        -0.156581
 C         0.448511         1.179754        -1.218185
 C         0.843067         1.796710        -2.519185
 O         0.968556         3.151460        -2.578880
 C         1.558725         0.975976         0.984219
 O         0.665168         0.248504         1.297415
 H         3.839421         3.458355        -3.306319
 H         3.859601         1.679138        -3.393874
 H         2.732570         2.512662        -4.410220
 H         3.496771         1.535508        -0.874257
 H         3.256308         3.286442        -0.613176
 H         0.813646         2.818157         0.247801
 H         0.972785         0.106728        -1.213144
 H        -0.592554         0.999845        -0.896710
 H         0.541444         1.329482        -3.426709
 H         2.448045         1.168808         1.610412
