19
Iteration:   477charge 0 multiplicity 1
 C         3.131964         2.343191        -3.664782
 C         2.186891         2.340175        -2.426815
 C         2.668761         2.248219        -0.989541
 C         1.395402         1.971526        -0.096028
 C         0.366554         1.481470        -1.085234
 C         0.726644         1.951634        -2.492123
 O         1.092222         3.312406        -2.603245
 C         1.552641         0.691667         0.854103
 O         0.763117         0.331778         1.707459
 H         3.657866         3.361024        -3.739096
 H         3.956613         1.686029        -3.520334
 H         2.687887         2.285174        -4.739440
 H         3.257999         1.317448        -0.831317
 H         3.493913         2.914950        -0.796576
 H         1.047195         2.668430         0.654463
 H         0.359871         0.325259        -1.094431
 H        -0.669320         1.829873        -0.816109
 H         0.347335         1.503180        -3.506770
 H         2.387437         0.090394         0.570584
