19
Iteration:  2645
 C         3.195746         3.078916        -3.318026
 C         2.144456         2.569138        -2.401775
 C         2.506511         2.346701        -0.884254
 C         1.161883         1.640396        -0.391678
 C         0.682564         0.746264        -1.437067
 C         1.034909         1.527247        -2.718775
 O         0.760776         3.060728        -2.625663
 C         1.503020         0.841684         0.907663
 O         0.950750         0.762057         1.985485
 H         3.656498         4.066582        -3.015321
 H         3.987503         2.284195        -3.398963
 H         2.803709         3.254906        -4.295035
 H         3.326330         1.577125        -0.747334
 H         2.340474         3.261308        -0.258466
 H         0.321989         2.406222        -0.230643
 H         1.277240        -0.167817        -1.421393
 H        -0.460213         0.486064        -1.358710
 H         0.848036         1.209485        -3.752945
 H         2.322037         0.075851         0.695510
