19
Iteration:  2966
 C         3.442323         2.753655        -2.745620
 C         2.035436         2.487315        -2.163157
 C         1.813526         2.841133        -0.688721
 C         0.771828         1.769750        -0.312538
 C         0.096502         1.175559        -1.504515
 C         1.137312         1.393055        -2.588173
 O         0.951344         2.774912        -2.995379
 C         1.744877         0.759052         0.465792
 O         1.735634         0.628537         1.675247
 H         3.513150         3.809111        -2.867701
 H         4.297475         2.407664        -2.198984
 H         3.564557         2.161098        -3.748538
 H         2.825180         2.864180        -0.039071
 H         1.552499         3.944805        -0.591906
 H         0.170769         2.116160         0.465363
 H        -0.020116         0.079044        -1.262989
 H        -0.815263         1.734711        -1.683915
 H         1.331407         0.543383        -3.370469
 H         2.668018         0.335978        -0.116362
