19
Iteration:  3391
 C         3.205985         3.062482        -3.247762
 C         2.079814         2.621497        -2.321474
 C         2.217941         2.576061        -0.776044
 C         1.051395         1.629653        -0.315508
 C         0.679806         0.697527        -1.533215
 C         1.184266         1.516119        -2.719455
 O         0.782787         2.907238        -2.755537
 C         1.588182         0.792841         0.844259
 O         1.068616         0.762657         1.945407
 H         3.362631         4.101072        -3.301636
 H         4.129610         2.563408        -3.128139
 H         3.006830         2.718972        -4.236847
 H         3.248520         2.342725        -0.408963
 H         2.086213         3.559570        -0.199053
 H         0.144242         2.141197         0.172002
 H         1.267032        -0.221932        -1.434211
 H        -0.360315         0.520446        -1.515974
 H         1.398766         1.121617        -3.681238
 H         2.561549         0.295959         0.566592
