19
Iteration:  4287charge 0 multiplicity 1
 C         3.261314         3.180373        -3.073984
 C         2.027228         2.684301        -2.253421
 C         1.923104         2.923630        -0.758239
 C         0.928366         1.814200        -0.352538
 C         1.109468         0.706058        -1.371082
 C         1.467856         1.410877        -2.633748
 O         0.649308         2.616038        -2.771669
 C         1.174113         1.233314         1.066140
 O         1.333973         0.075020         1.319563
 H         3.305471         4.295626        -3.195314
 H         4.035656         2.608772        -2.568136
 H         3.176201         2.717909        -4.056345
 H         2.772536         2.800176        -0.118189
 H         1.601964         3.897343        -0.636882
 H        -0.073062         2.273476        -0.290701
 H         1.967206         0.181417        -1.224079
 H         0.174295         0.153712        -1.423160
 H         1.807113         1.149651        -3.630478
 H         1.365906         2.012164         1.916275
