19
Iteration:  2799
 C         3.413227         2.748226        -2.993166
 C         2.004372         2.635027        -2.189280
 C         1.867883         2.858499        -0.744829
 C         0.889008         1.633075        -0.185759
 C         0.268912         1.122024        -1.533975
 C         1.149371         1.488901        -2.722919
 O         0.948768         2.850625        -2.988259
 C         1.599742         0.543558         0.641882
 O         1.628189         0.715690         1.857764
 H         3.780764         3.788870        -3.122582
 H         4.279273         2.332782        -2.493515
 H         3.439475         2.231514        -3.888102
 H         2.840535         2.825643        -0.205146
 H         1.541276         3.918079        -0.305034
 H         0.201688         2.023009         0.490918
 H         0.263537         0.045894        -1.463793
 H        -0.773264         1.427706        -1.747486
 H         1.428671         0.905969        -3.497341
 H         2.036236        -0.298649         0.084655
