19
Iteration:  2250charge 0 multiplicity 1
 C         3.456260         2.571639        -2.975855
 C         2.165841         2.412031        -2.238600
 C         1.960353         2.769874        -0.732252
 C         0.879060         1.754160        -0.131286
 C         0.140877         1.249664        -1.374247
 C         0.979755         1.597892        -2.590768
 O         0.938953         2.996372        -3.015098
 C         1.792044         0.823958         0.601157
 O         1.537868         0.411594         1.684941
 H         3.596385         3.645627        -3.076553
 H         4.223302         1.975978        -2.476983
 H         3.318684         2.182327        -4.054280
 H         2.778719         2.862150        -0.006088
 H         1.506566         3.682229        -0.838249
 H         0.214401         2.251042         0.504370
 H         0.003255         0.157421        -1.444396
 H        -0.795827         1.771001        -1.602839
 H         0.938059         0.889453        -3.384194
 H         2.679310         0.510799        -0.009226
