19
Iteration:  3776
 C         3.199789         3.386515        -2.885679
 C         2.095141         2.524286        -2.259467
 C         1.981175         2.659776        -0.700788
 C         0.834869         1.766922        -0.304886
 C         0.640012         0.747950        -1.507613
 C         1.412978         1.348333        -2.702721
 O         0.856906         2.626841        -3.027624
 C         0.927382         1.045045         1.084645
 O         1.891766         0.444661         1.495958
 H         3.071603         4.457280        -2.647399
 H         4.207622         2.895248        -2.631099
 H         3.120111         3.469845        -3.901492
 H         2.975054         2.326570        -0.353877
 H         1.831275         3.778102        -0.585815
 H        -0.186900         2.339225        -0.405071
 H         1.037908        -0.200145        -1.199737
 H        -0.364885         0.695353        -1.730474
 H         1.784582         0.782842        -3.518462
 H         0.041678         1.154352         1.813393
