19
Iteration:  3283
 C         2.903418         3.248250        -3.521257
 C         2.176709         2.578166        -2.414185
 C         2.642791         2.391726        -0.942874
 C         1.424156         1.677339        -0.287712
 C         0.867158         0.739129        -1.347709
 C         1.264352         1.463722        -2.637946
 O         0.743896         2.847060        -2.384748
 C         1.526129         0.897336         0.988001
 O         0.501077         0.719609         1.674225
 H         3.257007         4.222024        -3.253018
 H         3.750811         2.680101        -3.959002
 H         2.004001         3.404806        -4.107987
 H         3.528564         1.752194        -1.031143
 H         2.743185         3.387075        -0.389837
 H         0.672342         2.389286        -0.014842
 H         1.488026        -0.200563        -1.337639
 H        -0.134948         0.478823        -1.171520
 H         1.133325         1.118124        -3.636419
 H         2.527870         0.364194         1.278694
