19
Iteration:  1895
 C         3.118461         3.225153        -3.350293
 C         2.177471         2.502377        -2.461295
 C         2.626349         1.950514        -1.030860
 C         1.305009         1.452387        -0.417175
 C         0.604678         0.741146        -1.501944
 C         1.000017         1.694907        -2.736507
 O         0.801869         3.102978        -2.350544
 C         1.375620         0.712623         0.896861
 O         0.914158         1.096264         2.021048
 H         3.453559         3.961978        -2.685076
 H         3.963919         2.579159        -3.652411
 H         2.650394         3.491891        -4.322821
 H         3.352390         1.096015        -0.866041
 H         3.154753         2.776308        -0.467064
 H         0.646534         2.374077        -0.259255
 H         1.157294        -0.165261        -1.899787
 H        -0.420759         0.698932        -1.395390
 H         0.785654         1.619241        -3.693599
 H         1.864410        -0.338739         0.784192
