19
Iteration:  1531
 C         3.427926         2.553967        -2.982082
 C         2.104429         2.537621        -2.246153
 C         2.102463         2.763810        -0.741814
 C         0.908699         1.881348        -0.172463
 C         0.105551         1.311114        -1.447503
 C         1.024502         1.588263        -2.581034
 O         0.921126         2.980072        -2.979704
 C         1.418297         0.579446         0.536919
 O         1.757835         0.483366         1.768236
 H         4.332467         3.174035        -2.488898
 H         3.965420         1.610713        -2.827114
 H         3.179814         2.816024        -3.998549
 H         3.109735         2.458715        -0.400216
 H         1.985277         3.845587        -0.545640
 H         0.348260         2.243627         0.702324
 H         0.032918         0.250007        -1.197282
 H        -0.859150         1.725814        -1.757533
 H         1.019895         0.816774        -3.405824
 H         1.503733        -0.326949        -0.062503
