19
Iteration:   423charge 0 multiplicity 1
 C         3.238294         2.082421        -3.395805
 C         2.157495         2.448602        -2.328639
 C         2.444542         2.351802        -0.906336
 C         1.304987         1.884771        -0.114297
 C         0.168150         1.651270        -1.210359
 C         0.730261         1.912186        -2.529673
 O         1.072408         3.346047        -2.653774
 C         1.694913         0.652781         0.674722
 O         1.077150         0.321665         1.673295
 H         4.172859         2.733273        -3.344768
 H         3.528039         1.042250        -3.383023
 H         2.714451         2.172099        -4.420686
 H         3.213565         1.630730        -0.853182
 H         2.737202         3.351439        -0.576062
 H         1.023274         2.539334         0.703074
 H        -0.290575         0.721874        -1.099300
 H        -0.576578         2.431976        -1.225878
 H         0.282685         1.567181        -3.495535
 H         2.509848        -0.056951         0.147848
