19
Iteration:  4132charge 0 multiplicity 1
 C         3.264023         3.149428        -2.996031
 C         2.029687         2.737256        -2.229047
 C         1.921633         2.918123        -0.729505
 C         0.907506         1.696856        -0.337591
 C         0.979835         0.645219        -1.464620
 C         1.421566         1.418110        -2.665866
 O         0.713749         2.694602        -2.886569
 C         1.004481         1.181583         1.056713
 O         1.623136         0.215347         1.451394
 H         3.672579         4.149390        -2.871122
 H         4.052822         2.476512        -2.823048
 H         3.011723         3.114217        -4.148056
 H         2.964935         2.637958        -0.175725
 H         1.445758         3.884530        -0.503754
 H        -0.078732         2.307084        -0.388197
 H         1.744892        -0.142957        -1.282799
 H         0.100749        -0.078990        -1.542116
 H         1.664654         0.929840        -3.609110
 H         0.263185         1.794973         1.717989
