19
Iteration:  3954charge 0 multiplicity 1
 C         3.213167         3.228530        -2.892809
 C         2.046851         2.593668        -2.169941
 C         1.753437         2.954919        -0.768181
 C         0.820290         1.854791        -0.283324
 C         0.874733         0.675647        -1.349231
 C         1.472812         1.345839        -2.630600
 O         0.805155         2.556159        -2.958830
 C         1.330902         1.324460         0.982761
 O         1.501124         0.104698         1.247428
 H         3.437063         4.240314        -2.542902
 H         4.172604         2.834380        -2.756384
 H         3.045188         3.155130        -3.958381
 H         2.770538         2.924792        -0.211007
 H         1.404608         4.007173        -0.562040
 H        -0.246412         2.194784         0.039403
 H         1.575646        -0.071446        -0.977920
 H        -0.054417         0.129873        -1.537574
 H         1.863972         0.680672        -3.468618
 H         1.556680         2.174861         1.700050
