19
Iteration:  2551
 C         2.959677         3.131084        -3.520194
 C         2.201531         2.539442        -2.409795
 C         2.695588         2.244801        -0.861962
 C         1.398638         1.665882        -0.319699
 C         0.876204         0.746589        -1.485676
 C         1.073475         1.600614        -2.664174
 O         0.765800         3.014360        -2.389481
 C         1.419329         0.837569         0.971303
 O         0.621050         0.787897         1.844559
 H         3.158816         4.229776        -3.455446
 H         3.959505         2.718668        -3.716814
 H         2.364295         2.982092        -4.416520
 H         3.195562         1.348746        -0.997129
 H         3.194768         3.089884        -0.533656
 H         0.685542         2.423007        -0.182141
 H         1.359124        -0.248339        -1.583039
 H        -0.134426         0.762134        -1.218244
 H         0.753920         1.150015        -3.567975
 H         2.329141         0.137506         0.927147
