19
Iteration:  1938
 C         3.135554         2.983207        -3.272725
 C         2.114900         2.491622        -2.324973
 C         2.517009         2.094208        -0.925550
 C         1.248921         1.467254        -0.385216
 C         0.654380         0.728600        -1.661249
 C         0.950417         1.763003        -2.745414
 O         0.766622         3.196032        -2.382953
 C         1.516437         0.743100         0.877672
 O         0.980867         1.043727         1.910795
 H         3.706929         3.796523        -2.851933
 H         3.901739         2.186216        -3.365083
 H         2.802747         3.117968        -4.341247
 H         3.473945         1.408577        -0.924199
 H         2.750517         3.027151        -0.316761
 H         0.581051         2.341386        -0.126772
 H         1.188082        -0.226032        -1.836118
 H        -0.395851         0.606417        -1.487898
 H         0.802785         1.456361        -3.701514
 H         2.130773        -0.167436         0.807438
