19
Iteration:  2401charge 0 multiplicity 1
 C         3.398963         2.740822        -3.163439
 C         2.084819         2.540011        -2.343518
 C         2.197483         2.759497        -0.810764
 C         1.147775         1.777279        -0.153011
 C         0.358243         1.168416        -1.345021
 C         0.968271         1.603677        -2.662868
 O         0.845138         2.925693        -2.913051
 C         1.640091         0.611557         0.716353
 O         1.227985         0.478038         1.801992
 H         3.525383         3.781695        -3.157701
 H         4.278837         2.497295        -2.545748
 H         3.434616         2.333467        -4.204621
 H         3.184658         2.808416        -0.340377
 H         1.793747         3.771542        -0.486760
 H         0.474782         2.277283         0.456242
 H         0.421117         0.044868        -1.365842
 H        -0.658331         1.170767        -1.174523
 H         0.880452         1.014252        -3.541707
 H         2.513552         0.033019         0.312883
