19
Iteration:  2024
 C         3.367216         2.862041        -3.134888
 C         2.105261         2.536238        -2.381121
 C         2.263285         2.496974        -0.840391
 C         1.031142         1.751591        -0.169875
 C         0.385620         1.085355        -1.420662
 C         1.041956         1.503600        -2.733105
 O         0.812704         3.062643        -2.860065
 C         1.554915         0.683994         0.737621
 O         1.291586         0.596112         1.926382
 H         3.639794         3.906998        -3.023861
 H         4.132279         2.224415        -2.770819
 H         3.130472         2.833916        -4.252416
 H         3.107950         1.930051        -0.635354
 H         2.467395         3.463755        -0.398444
 H         0.466659         2.472840         0.455331
 H         0.361414         0.047538        -1.322307
 H        -0.696540         1.233346        -1.332793
 H         1.039148         0.921275        -3.584439
 H         2.256614         0.004343         0.148119
