19
Iteration:  3510charge 0 multiplicity 1
 C         3.454075         2.848842        -2.768437
 C         2.103088         2.553320        -2.238124
 C         1.739315         2.706560        -0.719554
 C         0.702843         1.461010        -0.332568
 C         0.387768         0.820069        -1.653759
 C         1.174679         1.519534        -2.759300
 O         0.850531         2.893596        -2.882911
 C         1.608754         0.703928         0.648431
 O         1.787070         1.030366         1.833101
 H         3.711372         3.940079        -2.793873
 H         4.233620         2.348215        -2.173154
 H         3.504556         2.436991        -3.886063
 H         2.502506         2.822753         0.024299
 H         1.185217         3.645382        -0.613983
 H        -0.199096         1.891670         0.260447
 H         0.821158        -0.231039        -1.595887
 H        -0.697621         0.843398        -1.955910
 H         1.235746         0.931279        -3.707616
 H         2.040219        -0.147309         0.148778
