19
Iteration:   998
 C         3.350237         2.134184        -3.081726
 C         2.143605         2.381703        -2.244272
 C         2.158723         2.929792        -0.762823
 C         1.099124         2.045451        -0.083387
 C         0.100914         1.535973        -1.219793
 C         0.908199         1.657955        -2.497098
 O         1.044653         3.034170        -2.843802
 C         1.652089         0.769731         0.434686
 O         1.363608         0.199417         1.493745
 H         3.859724         3.069919        -3.220169
 H         4.121875         1.423144        -2.691562
 H         3.046764         1.816064        -4.013117
 H         3.131806         2.835415        -0.334187
 H         2.042314         4.023523        -0.763919
 H         0.556644         2.472683         0.750563
 H        -0.146098         0.499138        -1.061867
 H        -0.764444         2.162885        -1.238965
 H         0.712555         0.903197        -3.279467
 H         2.528796         0.206308        -0.070177
