19
Iteration:  2530charge 0 multiplicity 1
 C         3.039512         3.067514        -3.419812
 C         2.134036         2.614997        -2.378334
 C         2.627195         2.272538        -0.988662
 C         1.346462         1.704233        -0.277954
 C         0.722874         0.734838        -1.389484
 C         1.056034         1.561892        -2.609851
 O         0.785108         2.989727        -2.401453
 C         1.499503         0.823999         0.862270
 O         0.688718         0.786907         1.743888
 H         3.555271         3.981214        -3.276660
 H         3.803438         2.337462        -3.565103
 H         2.606547         3.213697        -4.386669
 H         3.515149         1.685598        -0.993556
 H         2.714009         3.279473        -0.448320
 H         0.820968         2.517949         0.098767
 H         1.478961        -0.087330        -1.389395
 H        -0.261571         0.446057        -1.291046
 H         1.128966         1.187073        -3.598968
 H         2.493144         0.271834         0.842151
