19
Iteration:  2592
 C         3.058781         3.225777        -3.449512
 C         2.102422         2.506710        -2.440652
 C         2.628571         2.262403        -1.010129
 C         1.487646         1.536310        -0.292784
 C         0.783453         0.640070        -1.465664
 C         0.992135         1.566669        -2.628275
 O         0.824181         3.062338        -2.468532
 C         1.463678         0.807223         1.003488
 O         0.645915         0.878164         1.865498
 H         3.083836         4.388658        -3.202290
 H         4.153923         2.982845        -3.191785
 H         2.729417         2.907927        -4.436700
 H         3.529015         1.464715        -1.092324
 H         2.953787         3.122091        -0.410842
 H         0.581189         2.213497        -0.220636
 H         0.991189        -0.426541        -1.727689
 H        -0.346991         0.812687        -1.211647
 H         0.738297         1.289777        -3.642314
 H         2.415204         0.274699         1.235405
