19
Iteration:  4156
 C         3.258414         3.218613        -2.958456
 C         2.041662         2.644062        -2.246272
 C         1.955108         2.706905        -0.741415
 C         0.887678         1.606219        -0.386642
 C         1.074178         0.588978        -1.515693
 C         1.327931         1.437621        -2.692111
 O         0.688574         2.773504        -2.791481
 C         0.993721         1.272008         1.039512
 O         1.605482         0.341993         1.474321
 H         3.509221         4.258346        -2.789015
 H         4.095539         2.688685        -2.618668
 H         3.243542         3.102532        -4.061928
 H         3.005773         2.389603        -0.275119
 H         1.591059         3.672097        -0.484838
 H        -0.084828         2.156828        -0.617598
 H         1.790810        -0.295580        -1.394908
 H         0.140296        -0.059442        -1.640508
 H         1.603694         1.016509        -3.676662
 H         0.508596         2.123424         1.670251
