19
Iteration:  3561
 C         3.440090         2.903243        -2.706267
 C         2.001211         2.560599        -2.260494
 C         1.633815         2.788089        -0.750285
 C         0.811058         1.602887        -0.288605
 C         0.375227         0.860371        -1.583750
 C         1.199527         1.520051        -2.741116
 O         0.878012         2.826864        -3.132565
 C         1.467956         0.604286         0.766220
 O         1.931545         0.899433         1.834618
 H         3.778296         3.936111        -2.626396
 H         4.126264         2.347959        -2.154121
 H         3.531038         2.701397        -3.732017
 H         2.638344         2.726803        -0.126889
 H         1.174271         3.621122        -0.326102
 H        -0.040565         2.025978         0.119857
 H         0.703595        -0.129514        -1.495910
 H        -0.661722         1.080587        -1.823721
 H         1.650099         0.885964        -3.421146
 H         1.587897        -0.273559         0.145810
