19
Iteration:   801
 C         3.444719         2.224341        -3.151062
 C         2.147049         2.336664        -2.299030
 C         2.085779         2.621727        -0.845714
 C         0.970384         1.792248        -0.159317
 C        -0.015693         1.500818        -1.361460
 C         0.823991         1.852073        -2.597746
 O         1.158649         3.225555        -2.820879
 C         1.449981         0.505120         0.588018
 O         1.731559         0.522492         1.796395
 H         4.104683         3.080362        -2.990241
 H         3.972077         1.228692        -2.836761
 H         3.319703         2.266330        -4.183662
 H         3.008574         2.373200        -0.307098
 H         1.791731         3.694034        -0.722986
 H         0.447377         2.330976         0.638219
 H        -0.462683         0.437208        -1.281502
 H        -0.814480         2.286562        -1.393892
 H         0.496997         1.379598        -3.562520
 H         1.613513        -0.421506        -0.018793
