19
Iteration:  4857charge 0 multiplicity 1
 C         3.425409         2.981834        -2.508965
 C         1.982684         2.573956        -2.004279
 C         1.341805         3.113176        -0.747960
 C         0.512938         1.934645        -0.200694
 C         0.218128         0.962563        -1.327779
 C         1.437405         1.224945        -2.270354
 O         1.126555         2.339793        -3.155505
 C         1.393759         1.176107         0.895256
 O         2.250377         0.343242         0.595324
 H         3.541348         4.113426        -2.487332
 H         4.172100         2.614433        -1.662707
 H         3.613437         2.613246        -3.471791
 H         2.315443         3.330235        -0.204757
 H         0.944279         4.109651        -0.908515
 H        -0.336876         2.368883         0.291934
 H         0.239722         0.000389        -1.022319
 H        -0.696142         1.178211        -1.880318
 H         1.908185         0.307562        -2.741762
 H         1.129170         1.409125         2.005995
