19
Iteration:  4928
 C         3.498380         2.834216        -2.268381
 C         2.033692         2.471133        -2.008553
 C         1.223241         3.125745        -0.792265
 C         0.534083         1.831633        -0.192170
 C         0.256501         0.929143        -1.435464
 C         1.238187         1.270139        -2.465950
 O         1.061759         2.494801        -3.139911
 C         1.591954         1.330641         0.787601
 O         2.294688         0.351227         0.728951
 H         3.683429         3.836088        -2.654590
 H         4.094849         2.655673        -1.415630
 H         3.740628         2.014387        -3.043679
 H         1.815207         3.562816         0.003523
 H         0.378370         3.976250        -0.929068
 H        -0.440379         1.973106         0.328827
 H         0.399096        -0.238119        -1.114004
 H        -0.798450         1.147021        -1.780197
 H         1.768681         0.542823        -3.028899
 H         1.752837         2.068128         1.690750
