19
Iteration:   576charge 0 multiplicity 1
 C         3.129705         2.745854        -3.539366
 C         2.182882         2.365372        -2.443623
 C         2.631078         1.710478        -1.138961
 C         1.398965         1.657659        -0.313734
 C         0.448496         1.091303        -1.374917
 C         0.788017         1.967877        -2.655731
 O         1.003889         3.315377        -2.294378
 C         1.587268         0.816171         1.020213
 O         0.738219         0.886749         1.896544
 H         4.080129         3.222380        -3.295843
 H         3.357868         1.891615        -4.112524
 H         2.553746         3.441453        -4.276551
 H         3.102348         0.753717        -1.548947
 H         3.455097         2.063259        -0.552797
 H         1.213881         2.672012         0.007855
 H         0.631665        -0.049163        -1.659940
 H        -0.611252         1.236620        -1.155777
 H         0.465180         1.749560        -3.696698
 H         2.436366         0.165438         1.070611
