19
Iteration:  3188charge 0 multiplicity 1
 C         3.172705         3.054578        -3.355478
 C         2.207937         2.501262        -2.322451
 C         2.312422         2.616572        -0.820744
 C         1.101441         1.694566        -0.282963
 C         0.588463         0.800340        -1.470888
 C         1.087591         1.530886        -2.723207
 O         0.830799         2.925187        -2.757436
 C         1.604579         0.977250         0.960645
 O         0.984789         0.480829         1.902751
 H         3.286871         4.196366        -3.045768
 H         4.264078         2.731505        -3.174245
 H         2.825062         3.049568        -4.344457
 H         3.203746         1.971382        -0.521465
 H         2.314933         3.569389        -0.434194
 H         0.273073         2.314907         0.095314
 H         1.177457        -0.185290        -1.388177
 H        -0.485305         0.643065        -1.477450
 H         1.056518         1.000902        -3.627527
 H         2.689839         0.712027         0.812898
