19
Iteration:   335
 C         3.277077         2.037760        -3.229967
 C         2.125793         2.325962        -2.298543
 C         2.361221         2.259686        -0.757445
 C         1.024930         1.907240        -0.134840
 C        -0.041430         1.845600        -1.284188
 C         0.719346         1.933755        -2.578890
 O         1.164774         3.343379        -2.665200
 C         1.430349         0.545221         0.457239
 O         1.637720         0.424734         1.655215
 H         4.016326         2.955035        -3.253107
 H         3.834684         1.142093        -2.828980
 H         3.047995         1.699570        -4.258444
 H         3.279716         1.636985        -0.604371
 H         2.815877         3.176325        -0.354338
 H         0.876041         2.499988         0.769476
 H        -0.643609         0.985575        -1.195868
 H        -0.654525         2.751134        -1.276857
 H         0.506723         1.449327        -3.626126
 H         1.896926        -0.224008        -0.256918
