19
Iteration:  4692charge 0 multiplicity 1
 C         3.273798         3.313913        -2.785770
 C         2.007916         2.636289        -2.211037
 C         1.655144         3.020163        -0.792537
 C         0.761752         1.799766        -0.218388
 C         0.503096         0.871311        -1.324919
 C         1.542193         1.268039        -2.412229
 O         0.939089         2.399753        -3.073176
 C         1.430512         1.202883         0.892177
 O         1.709680         0.063486         1.170970
 H         3.309243         4.384094        -2.750510
 H         4.170545         3.049264        -2.158048
 H         3.320638         3.133423        -3.847335
 H         2.545842         3.089069        -0.279265
 H         1.274981         4.027564        -0.694061
 H        -0.017954         2.450450         0.015239
 H         0.633885        -0.204255        -1.106613
 H        -0.516992         1.068523        -1.789396
 H         1.840256         0.674100        -3.323369
 H         1.553589         2.132332         1.604933
