19
Iteration:  4766
 C         3.451318         2.898558        -2.439943
 C         1.989582         2.590603        -2.138580
 C         1.358459         3.134690        -0.826647
 C         0.677136         1.833662        -0.193759
 C         0.524851         0.798536        -1.423082
 C         1.363998         1.301644        -2.558897
 O         0.872845         2.573926        -3.085668
 C         1.557381         1.330947         0.909761
 O         1.970575         0.184842         0.974556
 H         3.769615         3.938555        -2.696454
 H         4.120276         2.541671        -1.595944
 H         3.698739         2.119045        -3.330833
 H         2.017434         3.753298        -0.060755
 H         0.653798         3.903899        -1.033892
 H        -0.363920         1.903741         0.286624
 H         0.805928        -0.131838        -1.024478
 H        -0.462808         0.739727        -1.829426
 H         1.892004         0.810813        -3.399425
 H         1.892313         2.200540         1.508746
