19
Iteration:   735
 C         3.439302         2.393569        -3.197687
 C         2.180675         2.367825        -2.390400
 C         2.372206         2.306990        -0.792950
 C         0.993151         1.870085        -0.236009
 C         0.099993         1.337283        -1.411041
 C         0.783569         1.855463        -2.662777
 O         0.969574         3.188155        -2.659453
 C         1.384245         0.685856         0.649810
 O         1.563148         0.607246         1.828637
 H         4.152687         3.197027        -2.929576
 H         3.848142         1.350095        -2.990884
 H         3.291949         2.660800        -4.168219
 H         3.136712         1.566314        -0.471089
 H         2.854842         3.294067        -0.524873
 H         0.527235         2.690418         0.350841
 H        -0.044500         0.194946        -1.478620
 H        -0.852266         1.931695        -1.349354
 H         0.426230         1.445885        -3.658738
 H         1.676910        -0.237747         0.046014
