19
Iteration:  3222charge 0 multiplicity 1
 C         3.117838         3.026162        -3.355914
 C         2.058587         2.648417        -2.422813
 C         2.418920         2.499717        -0.926242
 C         1.278490         1.637207        -0.261278
 C         0.847679         0.718994        -1.506735
 C         1.121248         1.548781        -2.740473
 O         0.702661         2.958733        -2.534979
 C         1.621005         1.018217         1.049778
 O         0.743536         0.574261         1.798088
 H         3.432801         4.146846        -3.187270
 H         4.077017         2.397768        -3.257435
 H         2.930924         2.930277        -4.383156
 H         3.349235         1.826624        -0.818185
 H         2.833553         3.328505        -0.397367
 H         0.338879         2.277560        -0.023065
 H         1.376758        -0.287010        -1.437319
 H        -0.191857         0.356182        -1.304295
 H         0.990388         1.187348        -3.734182
 H         2.701131         0.753134         1.338053
