19
Iteration:  4610
 C         3.252603         3.242501        -3.004605
 C         1.980625         2.759300        -2.334519
 C         1.895288         2.838268        -0.743511
 C         0.949491         1.663028        -0.316160
 C         1.065783         0.682094        -1.482852
 C         1.482209         1.441533        -2.697597
 O         0.649883         2.691405        -2.896834
 C         1.173361         1.232816         1.124391
 O         1.441179         0.107773         1.515281
 H         3.242358         4.364950        -3.163067
 H         4.001602         2.824778        -2.316427
 H         3.494903         2.598166        -3.900993
 H         2.812383         2.582949        -0.228251
 H         1.507779         3.793878        -0.638527
 H        -0.046659         2.137165        -0.416672
 H         1.747264        -0.094096        -1.403458
 H         0.135508         0.204221        -1.607221
 H         1.724405         1.007054        -3.633810
 H         0.900233         2.065707         1.890755
