19
Iteration:  3121charge 0 multiplicity 1
 C         3.258194         2.827597        -3.071258
 C         2.072742         2.557328        -2.340029
 C         2.020289         2.791683        -0.770206
 C         1.029811         1.789317        -0.185021
 C         0.484997         1.026028        -1.390774
 C         1.219212         1.478639        -2.600442
 O         0.812192         2.860929        -2.959238
 C         1.678317         0.754251         0.702670
 O         1.270032         0.534655         1.810450
 H         3.619266         3.874360        -3.069258
 H         4.166059         2.323415        -2.621671
 H         3.286143         2.661916        -4.132269
 H         3.130485         2.633543        -0.526013
 H         1.765804         3.745025        -0.491289
 H         0.282601         2.309743         0.311036
 H         0.628215        -0.108804        -1.322967
 H        -0.586250         1.041874        -1.431976
 H         1.377688         0.945612        -3.527985
 H         2.416622         0.154219         0.085635
