19
Iteration:  2010
 C         3.324501         2.938754        -3.235336
 C         2.070516         2.559900        -2.394771
 C         2.328452         2.374465        -0.805437
 C         1.059657         1.837642        -0.175223
 C         0.396832         1.002472        -1.412224
 C         1.046925         1.620152        -2.672927
 O         0.854727         3.013649        -2.875708
 C         1.451145         0.718114         0.750032
 O         1.289834         0.575437         1.989400
 H         3.733591         3.909700        -2.883895
 H         4.135859         2.238767        -3.027570
 H         3.191095         2.845124        -4.279986
 H         3.221974         1.779389        -0.696043
 H         2.421236         3.332750        -0.381356
 H         0.389276         2.545042         0.206709
 H         0.964004         0.062047        -1.381104
 H        -0.735267         0.955504        -1.607838
 H         0.825421         1.075884        -3.679819
 H         1.969186        -0.169268         0.303212
