19
Iteration:  2577charge 0 multiplicity 1
 C         2.991935         3.218577        -3.490637
 C         2.221056         2.553489        -2.442300
 C         2.676861         2.238286        -1.037333
 C         1.379863         1.494365        -0.326913
 C         0.726561         0.703907        -1.425675
 C         1.050632         1.605618        -2.671600
 O         0.855383         3.061077        -2.464655
 C         1.517447         0.763638         1.126046
 O         0.569578         0.859427         1.887243
 H         2.782993         4.244369        -3.405420
 H         4.033118         2.998131        -3.570150
 H         2.618145         3.070363        -4.515591
 H         3.572724         1.566437        -1.211416
 H         2.968046         3.286910        -0.557642
 H         0.790721         2.400830        -0.023719
 H         1.445986        -0.131106        -1.540744
 H        -0.291243         0.300074        -1.234270
 H         0.703906         1.206534        -3.671651
 H         2.352898         0.015385         1.242940
