19
Iteration:  1383charge 0 multiplicity 1
 C         3.244104         2.823908        -3.341034
 C         2.200803         2.477846        -2.337576
 C         2.433571         2.243159        -0.777267
 C         0.994054         1.707423        -0.265523
 C         0.311078         1.051159        -1.496517
 C         1.023743         1.720180        -2.726547
 O         0.958506         3.117342        -2.696115
 C         1.157427         0.636265         0.793299
 O         1.526629         0.767698         2.000196
 H         3.769883         3.668229        -2.914501
 H         3.975109         1.938048        -3.555974
 H         2.810671         3.114066        -4.380841
 H         3.288915         1.625457        -0.598143
 H         2.619113         3.251271        -0.390747
 H         0.429080         2.616319         0.109554
 H         0.370485        -0.092276        -1.402306
 H        -0.787630         1.270309        -1.504667
 H         1.059524         1.541153        -3.786478
 H         0.907850        -0.389558         0.420409
