19
Iteration:  2817charge 0 multiplicity 1
 C         3.461523         2.792403        -2.884977
 C         2.108077         2.507018        -2.258745
 C         1.863143         2.774488        -0.745400
 C         0.868039         1.742533        -0.232303
 C         0.260341         1.004761        -1.450482
 C         1.167398         1.547445        -2.587513
 O         0.883499         2.902633        -3.069233
 C         1.512684         0.696001         0.609370
 O         1.728557         0.633824         1.809122
 H         3.672794         3.882972        -2.943580
 H         4.254386         2.142028        -2.381857
 H         3.465875         2.490045        -3.971254
 H         2.659841         2.821586        -0.033787
 H         1.418491         3.822830        -0.652740
 H        -0.003396         2.339204         0.341705
 H         0.087297        -0.098048        -1.388942
 H        -0.832124         1.268618        -1.698372
 H         1.219504         0.733766        -3.437562
 H         1.958183        -0.149350        -0.044598
