19
Iteration:  3212charge 0 multiplicity 1
 C         3.156712         3.037995        -3.378678
 C         2.103270         2.606513        -2.327850
 C         2.344102         2.473232        -0.863518
 C         1.251384         1.661870        -0.357614
 C         0.770270         0.729901        -1.474249
 C         1.138618         1.512538        -2.732428
 O         0.721411         2.996563        -2.594606
 C         1.622393         0.993467         1.038756
 O         0.822377         0.558046         1.829964
 H         3.446134         4.138041        -3.302986
 H         4.110475         2.500169        -3.195274
 H         2.728988         2.916575        -4.353224
 H         3.286767         1.775892        -0.863384
 H         2.435901         3.411863        -0.281585
 H         0.365231         2.395928        -0.096114
 H         1.360178        -0.216991        -1.450921
 H        -0.344599         0.529847        -1.469515
 H         1.060046         1.106669        -3.736082
 H         2.758345         0.992995         1.173941
