19
Iteration:  4910charge 0 multiplicity 1
 C         3.480560         2.828982        -2.314637
 C         2.042232         2.511474        -2.014413
 C         1.321457         3.081086        -0.805086
 C         0.506714         1.864290        -0.258673
 C         0.217321         0.855008        -1.323353
 C         1.329683         1.260034        -2.371158
 O         1.036435         2.516757        -3.062793
 C         1.489122         1.284278         0.778076
 O         2.286714         0.387225         0.627353
 H         3.402062         3.862806        -2.675677
 H         4.040456         2.843969        -1.340918
 H         3.976250         2.196498        -2.990736
 H         1.956147         3.737876        -0.142861
 H         0.798346         3.769332        -1.293964
 H        -0.254169         2.295761         0.412397
 H         0.371346        -0.098890        -1.078742
 H        -0.712870         0.902552        -1.866317
 H         1.791785         0.460322        -3.001895
 H         1.421793         1.928953         1.638614
