19
Iteration:  4533charge 0 multiplicity 1
 C         2.942543         3.608851        -3.065765
 C         2.074481         2.666631        -2.294434
 C         2.293965         2.554129        -0.710156
 C         1.157457         1.648538        -0.365177
 C         1.024062         0.586429        -1.447763
 C         1.487226         1.371221        -2.667995
 O         0.733768         2.555384        -2.840978
 C         0.963915         1.349162         1.060086
 O         1.244108         0.245486         1.510616
 H         3.153048         4.557325        -2.390902
 H         3.983381         3.164996        -3.302747
 H         2.307901         3.824648        -4.050951
 H         3.267760         2.032595        -0.624211
 H         2.365169         3.418159        -0.131117
 H         0.483120         2.464895        -0.626546
 H         1.546907        -0.296802        -1.182762
 H         0.046237         0.236342        -1.706701
 H         1.807486         0.765747        -3.501917
 H         0.636038         2.178689         1.720760
