19
Iteration:  4771
 C         3.440969         2.893632        -2.423809
 C         1.964568         2.591853        -2.096559
 C         1.350056         3.103334        -0.788887
 C         0.653436         1.813064        -0.210181
 C         0.543118         0.874145        -1.411180
 C         1.338380         1.313664        -2.555552
 O         0.883339         2.538982        -3.098170
 C         1.573566         1.330548         0.859416
 O         1.984690         0.213560         0.965819
 H         3.805075         3.866791        -2.717444
 H         4.127613         2.457681        -1.683269
 H         3.720480         2.229349        -3.126120
 H         2.141542         3.487814        -0.230145
 H         0.642954         3.921426        -1.145133
 H        -0.323107         2.032991         0.151066
 H         0.843221        -0.190867        -1.062896
 H        -0.500060         0.730149        -1.831641
 H         1.952332         0.847139        -3.318930
 H         1.921365         2.119273         1.596804
