19
Iteration:  3237
 C         3.130848         3.096935        -3.380320
 C         2.108837         2.587659        -2.389231
 C         2.567198         2.448204        -0.974948
 C         1.372864         1.693700        -0.298672
 C         0.942607         0.693063        -1.423877
 C         1.030168         1.571270        -2.641696
 O         0.604273         2.944457        -2.530229
 C         1.574910         0.916914         1.046128
 O         0.633475         0.616138         1.766946
 H         3.572490         4.036245        -3.182348
 H         3.973047         2.479479        -3.177748
 H         2.768441         3.132532        -4.481635
 H         3.507421         1.808811        -1.029325
 H         2.579706         3.577219        -0.583331
 H         0.467070         2.423271        -0.123259
 H         1.666921        -0.085672        -1.606491
 H        -0.092922         0.234684        -1.399228
 H         0.875565         1.092853        -3.674106
 H         2.688001         0.849164         1.267934
