19
Iteration:  3512charge 0 multiplicity 1
 C         3.454515         2.838344        -2.762140
 C         2.078812         2.553482        -2.248283
 C         1.734949         2.707405        -0.709287
 C         0.712811         1.465210        -0.341165
 C         0.397180         0.820483        -1.669051
 C         1.177392         1.538963        -2.749123
 O         0.855114         2.887189        -2.881549
 C         1.605803         0.691585         0.647881
 O         1.789064         1.031580         1.832463
 H         3.727313         3.889858        -2.836908
 H         4.265443         2.362419        -2.145500
 H         3.490372         2.487922        -3.816083
 H         2.504987         2.814264        -0.010529
 H         1.124618         3.707383        -0.679594
 H        -0.160636         1.891755         0.231816
 H         0.867504        -0.200858        -1.564571
 H        -0.681949         0.892549        -1.868629
 H         1.185766         0.842196        -3.651864
 H         2.017791        -0.149996         0.131013
