19
Iteration:   783
 C         3.405685         2.205204        -3.173268
 C         2.162487         2.395285        -2.292609
 C         2.270312         2.568185        -0.623369
 C         0.922649         1.770618        -0.150837
 C         0.013800         1.499171        -1.392055
 C         0.832031         1.814878        -2.666672
 O         1.057183         3.242687        -2.884929
 C         1.423302         0.564006         0.574564
 O         1.699731         0.543447         1.782449
 H         4.183897         2.954808        -2.971426
 H         3.748010         1.212967        -3.106631
 H         3.059908         2.518277        -4.206073
 H         3.321809         2.355924        -0.247317
 H         2.087534         3.586402        -0.393829
 H         0.499571         2.491703         0.515151
 H        -0.089365         0.439922        -1.497366
 H        -0.952122         1.973801        -1.239110
 H         0.743210         1.115906        -3.504932
 H         1.512582        -0.412378         0.014144
