19
Iteration:  4390charge 0 multiplicity 1
 C         3.087028         3.461881        -2.961862
 C         2.088611         2.553972        -2.220011
 C         1.921456         2.927531        -0.759266
 C         1.011255         1.756410        -0.294879
 C         0.745697         0.706099        -1.497867
 C         1.491955         1.315659        -2.637520
 O         0.834111         2.553663        -2.990095
 C         1.565152         1.185172         1.032495
 O         1.153634         0.139798         1.506953
 H         2.856881         4.519967        -2.902178
 H         4.082220         3.423247        -2.458639
 H         3.055324         3.051803        -3.941476
 H         2.926003         2.875209        -0.247812
 H         1.564090         3.879318        -0.427727
 H         0.016586         2.102672        -0.002644
 H         1.006557        -0.340812        -1.258314
 H        -0.303886         0.581643        -1.748079
 H         2.058610         0.888399        -3.495820
 H         2.565231         1.619147         1.295984
