19
Iteration:   868charge 0 multiplicity 1
 C         3.373549         2.203376        -3.040840
 C         2.152408         2.358732        -2.209948
 C         2.176851         2.714420        -0.684966
 C         0.914439         2.036837        -0.085048
 C         0.000242         1.597178        -1.308217
 C         0.907206         1.681759        -2.553156
 O         1.073712         3.066286        -2.894069
 C         1.445561         0.667610         0.430072
 O         1.739406         0.328646         1.558526
 H         3.891455         3.172603        -3.187722
 H         4.125746         1.475099        -2.401641
 H         3.232763         1.681630        -3.932315
 H         3.092894         2.303264        -0.141554
 H         2.060900         3.785316        -0.494374
 H         0.507825         2.745869         0.593296
 H        -0.569389         0.592103        -1.166778
 H        -0.823999         2.334152        -1.491463
 H         0.730286         1.007338        -3.418510
 H         1.689495         0.076006        -0.539708
