19
Iteration:  1071charge 0 multiplicity 1
 C         3.437967         2.460552        -3.270784
 C         2.170359         2.332652        -2.317911
 C         2.267607         2.749613        -0.881540
 C         1.126120         1.870639        -0.044341
 C         0.164303         1.573928        -1.163155
 C         0.838750         1.634333        -2.538130
 O         1.005952         3.012077        -2.860290
 C         1.704519         0.669587         0.602590
 O         1.153000         0.278159         1.646821
 H         3.885893         3.474159        -3.150915
 H         4.236803         1.844121        -2.943630
 H         3.346416         2.216358        -4.426760
 H         3.198641         2.784502        -0.359495
 H         1.942165         3.787540        -0.745077
 H         0.677346         2.463183         0.784137
 H        -0.272190         0.590191        -0.926877
 H        -0.589904         2.381662        -1.172287
 H         0.603387         0.957076        -3.387471
 H         2.482866        -0.037608         0.130358
