19
Iteration:  4689
 C         3.284065         3.331216        -2.805720
 C         2.022110         2.610617        -2.207669
 C         1.679724         3.032205        -0.779574
 C         0.757338         1.819293        -0.230767
 C         0.519713         0.853576        -1.335166
 C         1.532254         1.258714        -2.419649
 O         0.927410         2.399734        -3.056205
 C         1.427034         1.210772         0.902023
 O         1.693987         0.052584         1.170958
 H         3.278920         4.456661        -2.775437
 H         4.084001         3.050987        -2.129391
 H         3.308127         3.185795        -4.010836
 H         2.608718         3.060816        -0.183459
 H         1.188663         3.950945        -0.689291
 H        -0.111175         2.453301         0.030100
 H         0.639956        -0.109338        -1.032690
 H        -0.402733         1.037387        -1.791375
 H         1.844047         0.712999        -3.308134
 H         1.540093         2.130373         1.576725
