19
Iteration:  1826
 C         3.216097         2.969691        -3.384087
 C         2.152798         2.489411        -2.409040
 C         2.425024         2.212730        -0.968879
 C         1.218353         1.706045        -0.315327
 C         0.574590         0.818511        -1.503909
 C         0.964813         1.731247        -2.791426
 O         0.824941         3.174496        -2.536921
 C         1.512945         0.745504         0.971645
 O         0.978649         0.744092         2.024659
 H         3.390928         3.983126        -2.958837
 H         4.090192         2.434374        -3.149297
 H         3.068641         2.821279        -4.425898
 H         3.184326         1.333894        -0.982683
 H         3.077497         2.964229        -0.529875
 H         0.491091         2.386372         0.038917
 H         1.181538        -0.067507        -1.500467
 H        -0.467459         0.661797        -1.210255
 H         0.752740         1.460750        -3.818271
 H         2.152562        -0.125088         0.595065
