19
Iteration:  4178charge 0 multiplicity 1
 C         3.179195         3.349842        -2.930374
 C         2.089708         2.578362        -2.273728
 C         2.015069         2.557941        -0.740231
 C         0.779176         1.692812        -0.422923
 C         0.969408         0.594712        -1.551647
 C         1.328760         1.402721        -2.777129
 O         0.765318         2.734390        -2.796788
 C         1.048617         1.314027         1.057387
 O         1.604878         0.348057         1.561049
 H         3.117278         4.419453        -2.735610
 H         4.132129         3.077606        -2.576175
 H         3.270508         3.299733        -4.018985
 H         3.059202         1.941222        -0.463152
 H         2.014604         3.519457        -0.263375
 H        -0.211692         2.170206        -0.649273
 H         1.826394        -0.099860        -1.104143
 H         0.207882        -0.228962        -1.647605
 H         1.601006         1.076262        -3.798186
 H         0.712117         2.211730         1.714350
