19
Iteration:  1775
 C         3.278453         2.657509        -3.309425
 C         2.091459         2.559553        -2.330067
 C         2.310226         2.581357        -0.857699
 C         1.166815         1.684885        -0.226246
 C         0.488404         1.005748        -1.470845
 C         1.031459         1.615742        -2.658245
 O         0.841163         3.170191        -2.601111
 C         1.659731         0.712998         0.752960
 O         1.030225         0.583082         1.840590
 H         3.791158         3.623005        -3.191035
 H         4.028889         1.817141        -3.164882
 H         2.872109         2.656033        -4.395799
 H         3.283680         2.270544        -0.604518
 H         2.249025         3.699299        -0.678290
 H         0.363765         2.253943         0.341058
 H         0.700867        -0.123425        -1.472485
 H        -0.571505         1.112658        -1.390553
 H         0.899319         1.202031        -3.623987
 H         2.682240         0.242389         0.587418
