19
Iteration:  2191charge 0 multiplicity 1
 C         3.478555         2.598746        -2.990145
 C         2.052106         2.596379        -2.286047
 C         1.996889         2.852115        -0.728431
 C         0.888857         1.891605        -0.115136
 C         0.192676         1.312138        -1.355527
 C         0.966347         1.530415        -2.566044
 O         0.959692         2.857035        -3.051238
 C         1.678206         0.695405         0.587825
 O         1.573902         0.351661         1.705000
 H         4.019481         3.608595        -3.075531
 H         4.452859         2.070274        -2.489604
 H         3.135727         2.263143        -3.955404
 H         2.934254         2.666325        -0.294008
 H         1.804972         3.939749        -0.369749
 H         0.061832         2.405817         0.579656
 H         0.020600         0.185465        -1.398459
 H        -0.825098         1.658338        -1.430001
 H         1.282717         0.661735        -3.284106
 H         2.110861         0.085616        -0.277088
