19
Iteration:  3238charge 0 multiplicity 1
 C         3.127537         3.100928        -3.380425
 C         2.114375         2.582898        -2.383580
 C         2.567043         2.445343        -0.975059
 C         1.383579         1.696184        -0.310160
 C         0.944219         0.697714        -1.418135
 C         1.024108         1.566732        -2.638470
 O         0.598299         2.947366        -2.530074
 C         1.573929         0.915476         1.042240
 O         0.625781         0.616849         1.767232
 H         3.582064         4.028838        -3.197221
 H         4.008203         2.496568        -3.219041
 H         2.771362         3.149850        -4.472694
 H         3.492888         1.834999        -1.018006
 H         2.579473         3.554760        -0.572505
 H         0.536863         2.417809        -0.149430
 H         1.674706        -0.090076        -1.578819
 H        -0.047200         0.210370        -1.388381
 H         0.867901         1.081486        -3.650029
 H         2.668765         0.835937         1.261177
