19
Iteration:  2759
 C         3.464314         2.843081        -2.988155
 C         2.136077         2.502824        -2.355418
 C         1.929895         2.670510        -0.752012
 C         0.875343         1.676747        -0.202290
 C         0.280212         0.979741        -1.507967
 C         1.037753         1.527469        -2.738171
 O         0.921232         2.978929        -2.924858
 C         1.605029         0.669750         0.691270
 O         1.531285         0.707910         1.909718
 H         3.482184         3.943337        -3.089184
 H         4.318711         2.525056        -2.367925
 H         3.430106         2.343734        -4.024161
 H         2.960868         2.454085        -0.410894
 H         1.642382         3.618109        -0.537980
 H         0.159715         2.223172         0.421799
 H         0.577027        -0.103845        -1.468019
 H        -0.770128         1.102494        -1.567579
 H         1.065703         0.933653        -3.688545
 H         2.525039         0.144806         0.239904
