19
Iteration:  4352
 C         3.202357         3.441928        -2.991552
 C         2.094314         2.697904        -2.279060
 C         1.872080         2.890030        -0.785410
 C         0.946888         1.761729        -0.274773
 C         0.777801         0.660386        -1.446285
 C         1.455103         1.371192        -2.662339
 O         0.796730         2.596761        -3.077537
 C         1.468996         1.142770         1.071888
 O         1.255778         0.065508         1.616434
 H         3.180900         4.569656        -2.615285
 H         4.217501         2.964544        -2.722659
 H         3.182585         3.474090        -4.161377
 H         2.821245         2.699511        -0.341883
 H         1.534084         3.939107        -0.634458
 H        -0.073252         2.191982        -0.164989
 H         1.246373        -0.312577        -1.176908
 H        -0.310283         0.445213        -1.564605
 H         1.908259         0.620373        -3.319400
 H         2.207726         1.798203         1.506063
