19
Iteration:  4348charge 0 multiplicity 1
 C         3.176625         3.398215        -2.975411
 C         2.080679         2.696054        -2.293725
 C         1.871837         2.900485        -0.790221
 C         0.938177         1.770603        -0.270386
 C         0.817651         0.672238        -1.443411
 C         1.415323         1.394515        -2.682606
 O         0.821480         2.590886        -3.080984
 C         1.488542         1.127792         1.103239
 O         1.246846         0.065678         1.597273
 H         3.286588         4.376707        -2.609370
 H         4.170743         3.097661        -2.738471
 H         3.185069         3.482269        -4.123270
 H         2.844701         2.700103        -0.185398
 H         1.492583         4.051894        -0.661701
 H        -0.055259         2.221612        -0.129051
 H         1.272624        -0.406958        -1.198205
 H        -0.242456         0.323563        -1.512584
 H         1.901489         0.764576        -3.464660
 H         2.150009         1.941176         1.607225
