19
Iteration:  2424charge 0 multiplicity 1
 C         3.363938         2.795668        -3.180948
 C         2.123304         2.467327        -2.336294
 C         2.168643         2.744640        -0.909982
 C         1.137240         1.826284        -0.148814
 C         0.457294         0.952108        -1.363989
 C         1.047423         1.548527        -2.602703
 O         0.811783         3.051385        -2.773447
 C         1.642646         0.732677         0.669638
 O         1.146870         0.509053         1.790695
 H         3.754743         3.802715        -3.119960
 H         4.169885         2.171685        -2.748891
 H         3.096363         2.380337        -4.208718
 H         3.172370         2.392349        -0.617667
 H         2.201949         3.787348        -0.626407
 H         0.389506         2.336809         0.381181
 H         0.365490        -0.136768        -1.390895
 H        -0.541319         1.152281        -1.144390
 H         0.988316         0.976722        -3.490274
 H         2.342533        -0.021245         0.201790
