19
Iteration:  1855
 C         3.080403         3.136145        -3.401453
 C         2.201356         2.449366        -2.342031
 C         2.629173         2.112062        -0.924550
 C         1.286452         1.522328        -0.408793
 C         0.511076         0.930931        -1.479195
 C         1.046208         1.639374        -2.700417
 O         0.828271         3.044194        -2.413870
 C         1.399080         0.635880         0.788225
 O         0.943641         1.005984         1.938937
 H         3.266917         4.096682        -2.829850
 H         4.118486         2.630141        -3.475541
 H         2.674395         3.332300        -4.408802
 H         3.488561         1.430377        -1.041038
 H         2.978816         2.932394        -0.282561
 H         0.722536         2.397305        -0.023688
 H         0.716573        -0.166625        -1.408651
 H        -0.599954         1.089046        -1.217109
 H         0.919360         1.217271        -3.835359
 H         2.077155        -0.250539         0.789114
