19
Iteration:  2886charge 0 multiplicity 1
 C         3.452471         2.641608        -2.796399
 C         2.061012         2.559997        -2.181860
 C         1.709451         2.872105        -0.674175
 C         0.808370         1.674323        -0.263431
 C         0.193431         1.120616        -1.554863
 C         1.134911         1.506207        -2.630358
 O         0.940582         2.838776        -3.070220
 C         1.763973         0.702770         0.543568
 O         1.762849         0.675634         1.770881
 H         3.976965         3.585205        -2.607833
 H         3.855979         1.803221        -2.235137
 H         3.406622         2.463717        -3.818541
 H         2.619734         3.042036        -0.142541
 H         1.041841         3.858788        -0.643303
 H         0.138324         2.020552         0.481297
 H        -0.120709         0.094134        -1.514599
 H        -0.795985         1.590463        -1.713737
 H         1.170025         0.840723        -3.384298
 H         2.558796         0.150126         0.079342
