19
Iteration:  4734charge 0 multiplicity 1
 C         3.393025         3.059217        -2.593506
 C         2.026307         2.609941        -2.157223
 C         1.425148         3.078000        -0.835737
 C         0.716332         1.833583        -0.178766
 C         0.516730         0.844661        -1.337860
 C         1.341074         1.354494        -2.552033
 O         0.997153         2.564303        -3.208402
 C         1.492040         1.229422         0.955544
 O         1.887879         0.098060         1.111380
 H         3.427965         4.132415        -2.869785
 H         4.153265         2.794254        -1.825823
 H         3.360598         2.583627        -3.663753
 H         2.208202         3.444645        -0.154152
 H         0.667571         3.772308        -0.965959
 H        -0.209131         1.918016         0.430668
 H         0.924094        -0.022714        -0.992914
 H        -0.528158         0.705625        -1.532408
 H         1.730632         0.458854        -3.112408
 H         1.771620         2.084689         1.625859
