19
Iteration:  4825
 C         3.421841         3.006308        -2.468102
 C         2.067471         2.448737        -2.069741
 C         1.341497         3.048878        -0.771993
 C         0.633009         1.874235        -0.168442
 C         0.272421         1.001323        -1.358526
 C         1.349565         1.294780        -2.382733
 O         1.057891         2.409573        -3.167338
 C         1.429121         1.224557         0.930395
 O         2.183690         0.302123         0.751476
 H         3.452078         4.123701        -2.422842
 H         4.304261         2.603185        -1.786813
 H         3.592760         2.900409        -3.468564
 H         1.968786         3.542505        -0.156914
 H         0.553916         3.652704        -1.338320
 H        -0.235351         2.218306         0.337234
 H         0.340922        -0.034107        -1.002068
 H        -0.658932         1.227485        -1.937691
 H         1.855212         0.519698        -3.040158
 H         1.388958         1.651469         1.925736
