19
Iteration:  1729charge 0 multiplicity 1
 C         3.314735         2.775628        -3.216310
 C         2.161063         2.519275        -2.404542
 C         2.253811         2.625234        -0.861567
 C         1.055006         1.952692        -0.092190
 C         0.317675         1.233627        -1.245441
 C         1.020877         1.524708        -2.527540
 O         0.924520         2.965990        -2.954523
 C         1.603371         0.739345         0.749730
 O         1.210934         0.311898         1.746643
 H         3.891392         3.718357        -2.819244
 H         3.902334         1.842788        -3.161012
 H         3.059916         3.011183        -4.312680
 H         3.104494         2.098379        -0.440294
 H         2.346355         3.680426        -0.530538
 H         0.536828         2.734536         0.473878
 H         0.419375         0.078295        -0.961504
 H        -0.785892         1.404515        -1.338724
 H         0.883490         0.908058        -3.368168
 H         2.324593         0.236847        -0.012085
