19
Iteration:  3617
 C         3.388858         3.119299        -2.721489
 C         2.137623         2.471432        -2.156054
 C         1.746928         2.694559        -0.605749
 C         0.684176         1.663682        -0.278281
 C         0.305881         0.892809        -1.619829
 C         1.295997         1.341607        -2.604731
 O         0.916066         2.713477        -3.019507
 C         1.305862         0.671792         0.678570
 O         2.051439         0.997998         1.551490
 H         3.468036         4.165990        -2.555304
 H         4.183776         2.523654        -2.507992
 H         3.364029         2.944740        -3.793129
 H         2.685079         2.455336        -0.002095
 H         1.347125         3.655195        -0.545001
 H        -0.177101         2.023105         0.154995
 H         0.140129        -0.142033        -1.555967
 H        -0.688054         1.121519        -2.083527
 H         1.549895         0.689331        -3.415712
 H         0.864808        -0.465260         0.503410
