19
Iteration:  2685charge 0 multiplicity 1
 C         3.271731         2.975086        -3.302400
 C         2.125527         2.596723        -2.333716
 C         2.251057         2.553511        -0.751643
 C         1.138363         1.599873        -0.319249
 C         0.520481         0.879738        -1.503812
 C         1.143724         1.522544        -2.726983
 O         0.812174         3.029711        -2.807833
 C         1.500556         0.626578         0.874038
 O         1.150023         0.758181         2.025000
 H         3.960121         3.704568        -2.952233
 H         3.847418         2.058396        -3.456364
 H         2.688263         3.173832        -4.237221
 H         3.282409         2.374950        -0.461507
 H         1.895608         3.672555        -0.554836
 H         0.387563         2.330002         0.117101
 H         0.839694        -0.188865        -1.502861
 H        -0.570395         1.009292        -1.544351
 H         1.082684         0.969335        -3.763007
 H         2.339751        -0.140443         0.689752
