19
Iteration:  1638
 C         3.388543         2.359461        -3.021708
 C         2.097987         2.600652        -2.250602
 C         2.010442         2.843544        -0.748140
 C         0.972407         1.950709        -0.110909
 C         0.284056         1.217207        -1.332649
 C         0.988584         1.654268        -2.610124
 O         0.963230         3.048322        -2.980320
 C         1.586621         0.779734         0.603485
 O         1.513827         0.255317         1.672303
 H         3.698077         3.397057        -3.538543
 H         4.291702         1.921717        -2.535324
 H         3.116767         1.667607        -3.806964
 H         3.063765         2.675826        -0.351263
 H         1.873367         3.906862        -0.716277
 H         0.247448         2.337699         0.594310
 H         0.453351         0.037768        -1.270746
 H        -0.858771         1.457163        -1.252604
 H         0.687966         1.014475        -3.508095
 H         2.428192         0.470597        -0.011219
