19
Iteration:   672
 C         3.196992         2.563098        -3.511979
 C         2.217367         2.493238        -2.420913
 C         2.548960         1.967455        -1.005168
 C         1.184045         1.707491        -0.250312
 C         0.305123         1.205832        -1.493762
 C         0.923730         1.913649        -2.681866
 O         0.966796         3.360619        -2.449240
 C         1.334851         0.569207         0.862611
 O         1.200071         0.831335         2.053698
 H         3.792054         3.497417        -3.498632
 H         3.979652         1.789238        -3.169614
 H         2.812034         2.216735        -4.488251
 H         3.167318         1.034451        -1.014280
 H         3.132558         2.647645        -0.352029
 H         0.732740         2.601657         0.174143
 H         0.398725         0.148025        -1.626178
 H        -0.794656         1.386061        -1.341657
 H         0.587232         1.604916        -3.756458
 H         1.560915        -0.395370         0.474585
