19
Iteration:  3663charge 0 multiplicity 1
 C         3.464442         2.931468        -2.635907
 C         2.006448         2.592470        -2.176488
 C         1.702047         2.758540        -0.689768
 C         0.697482         1.578055        -0.334385
 C         0.497616         0.762014        -1.598348
 C         1.215649         1.467885        -2.725670
 O         0.867309         2.813086        -3.044875
 C         1.081818         0.838647         0.958937
 O         2.235726         0.853974         1.440612
 H         3.501676         3.986659        -2.652567
 H         4.155337         2.554418        -1.927002
 H         3.962204         2.619537        -3.633030
 H         2.549708         2.650850        -0.053383
 H         1.023006         3.616369        -0.636718
 H        -0.288852         1.998320        -0.108355
 H         0.935489        -0.203849        -1.617648
 H        -0.580610         0.487921        -1.762023
 H         1.472964         0.916248        -3.713431
 H         0.236580         0.169545         1.204170
