19
Iteration:  2096
 C         3.384958         2.543537        -3.038568
 C         2.091278         2.566431        -2.261118
 C         2.099642         2.843407        -0.701318
 C         0.913796         1.876796        -0.193281
 C         0.311515         1.103461        -1.423783
 C         0.956441         1.607985        -2.733864
 O         0.899149         3.030665        -2.965129
 C         1.574822         0.704123         0.676741
 O         1.514849         0.394631         1.803385
 H         3.916137         3.555254        -3.167599
 H         4.084038         1.858795        -2.476093
 H         3.163770         2.321323        -4.049814
 H         3.268106         2.661959        -0.282294
 H         1.954055         3.927947        -0.662046
 H         0.153811         2.300832         0.415781
 H         0.460363         0.019835        -1.016368
 H        -0.831382         1.031854        -1.442961
 H         1.393508         0.871428        -3.560552
 H         2.394986         0.311037        -0.039252
