19
Iteration:  3844charge 0 multiplicity 1
 C         3.230582         3.212982        -3.053308
 C         2.110942         2.632438        -2.193707
 C         2.088979         2.673022        -0.739716
 C         0.819695         1.650455        -0.452198
 C         1.059006         0.550730        -1.468205
 C         1.325454         1.421186        -2.757103
 O         0.684492         2.793477        -2.635671
 C         0.879600         1.201014         0.949673
 O         1.666930         0.436237         1.478574
 H         2.925327         4.250596        -3.444286
 H         4.158004         3.152945        -2.419875
 H         3.289293         2.740206        -4.088093
 H         2.894358         2.253509        -0.127293
 H         1.997180         3.754728        -0.366051
 H        -0.226251         2.188377        -0.492387
 H         2.004767        -0.012374        -1.355592
 H         0.156511        -0.073551        -1.431022
 H         1.503314         1.009747        -3.801195
 H         0.081792         1.555648         1.640021
