19
Iteration:   690charge 0 multiplicity 1
 C         3.323522         2.544679        -3.463933
 C         2.186338         2.385778        -2.329413
 C         2.482881         2.114165        -0.887949
 C         1.133362         1.587849        -0.257664
 C         0.187397         1.269984        -1.460230
 C         0.748034         1.917155        -2.677060
 O         1.077841         3.324415        -2.584310
 C         1.376430         0.595324         0.797502
 O         1.297417         0.805888         2.005317
 H         3.674320         3.602537        -3.602877
 H         4.234321         1.837834        -3.380920
 H         2.796003         2.481706        -4.383479
 H         3.315937         1.386696        -0.945957
 H         2.985239         2.874409        -0.180822
 H         0.680504         2.479929         0.279891
 H         0.161004         0.140017        -1.755330
 H        -0.816557         1.702302        -1.194092
 H         0.549246         1.553414        -3.685975
 H         1.735034        -0.489453         0.510153
