19
Iteration:  1869charge 0 multiplicity 1
 C         3.030103         3.176775        -3.296555
 C         2.206372         2.447878        -2.348953
 C         2.632322         2.068773        -0.945700
 C         1.378003         1.547539        -0.290148
 C         0.496068         0.840358        -1.555328
 C         1.016805         1.624351        -2.730249
 O         0.865855         3.031725        -2.408956
 C         1.470171         0.629612         0.845715
 O         0.917773         1.095415         1.864580
 H         3.329935         4.218864        -2.920526
 H         3.879051         2.633387        -3.666646
 H         2.341563         3.214986        -4.148920
 H         3.497974         1.273316        -0.849671
 H         3.038534         2.947656        -0.433034
 H         0.784397         2.336563         0.080051
 H         0.565245        -0.187780        -1.763036
 H        -0.567151         1.230018        -1.523771
 H         0.781120         1.386107        -3.823696
 H         1.619434        -0.484441         0.666429
