19
Iteration:  3345
 C         3.178563         3.203457        -3.288973
 C         2.066409         2.553665        -2.424046
 C         2.480344         2.437362        -0.931446
 C         1.318593         1.627957        -0.310796
 C         0.848718         0.615603        -1.433080
 C         1.044436         1.498637        -2.735474
 O         0.674266         2.953609        -2.596288
 C         1.570918         0.946257         1.004564
 O         0.736651         0.715951         1.856028
 H         3.181537         4.258240        -3.071828
 H         4.125696         2.748185        -3.251438
 H         3.106275         3.070306        -4.446516
 H         3.392037         1.875076        -0.705490
 H         2.757784         3.357432        -0.378842
 H         0.396436         2.407908        -0.266884
 H         1.672129        -0.078743        -1.654123
 H        -0.136048         0.100734        -1.319725
 H         0.693723         1.001266        -3.681979
 H         2.682407         0.565731         1.096679
