19
Iteration:   632
 C         3.177121         2.768908        -3.547903
 C         2.153580         2.256996        -2.486694
 C         2.696994         1.868235        -1.052480
 C         1.280922         1.629873        -0.249021
 C         0.440295         1.082175        -1.402468
 C         0.737109         1.961854        -2.579703
 O         1.078048         3.284083        -2.288517
 C         1.354947         0.665986         0.813702
 O         0.964635         1.001597         1.918296
 H         3.823954         3.510571        -3.118294
 H         3.763935         1.946808        -3.832764
 H         2.700147         3.073864        -4.536102
 H         3.307586         0.985523        -1.110242
 H         3.153222         2.744127        -0.639120
 H         0.970645         2.570977         0.167957
 H         0.622781        -0.002955        -1.742023
 H        -0.619140         1.102261        -1.216454
 H         0.328711         1.702361        -3.491877
 H         1.740061        -0.374799         0.556465
