19
Iteration:  3950
 C         3.202552         3.260397        -2.908777
 C         2.046666         2.566274        -2.156176
 C         1.791870         2.940167        -0.781020
 C         0.789173         1.821962        -0.292232
 C         0.875663         0.698259        -1.356331
 C         1.463387         1.356373        -2.636735
 O         0.814068         2.547757        -2.949621
 C         1.326688         1.317076         0.969387
 O         1.502518         0.130884         1.249161
 H         3.336705         4.238799        -2.417975
 H         4.248778         2.784651        -2.759535
 H         3.032070         3.247540        -3.965391
 H         2.768759         2.782030        -0.205270
 H         1.373725         3.985691        -0.578463
 H        -0.135529         2.282979         0.070936
 H         1.496569        -0.071754        -0.876508
 H        -0.025045         0.129852        -1.493088
 H         1.909679         0.667420        -3.340215
 H         1.549093         2.147737         1.718914
