19
Iteration:  2707
 C         3.332058         2.875717        -3.128349
 C         2.124419         2.587073        -2.337781
 C         2.174328         2.629080        -0.749923
 C         0.965384         1.689250        -0.268087
 C         0.464724         0.876491        -1.489461
 C         1.125585         1.561825        -2.691125
 O         0.781639         2.938294        -2.804541
 C         1.619441         0.710303         0.742953
 O         1.272312         0.748297         1.883701
 H         3.818299         3.722841        -2.690985
 H         4.082841         2.068661        -3.095545
 H         3.015022         2.986742        -4.208317
 H         3.146975         2.143067        -0.656311
 H         2.337542         3.759392        -0.334327
 H         0.135691         2.317418         0.227423
 H         0.780620        -0.199113        -1.474935
 H        -0.644021         0.991102        -1.530171
 H         1.277324         0.901794        -3.664638
 H         2.080160        -0.213805         0.260933
