19
Iteration:  2034
 C         3.350659         2.836191        -3.112843
 C         2.086343         2.466163        -2.312372
 C         2.249770         2.600471        -0.847320
 C         1.064253         1.735710        -0.255264
 C         0.312517         1.071609        -1.419729
 C         1.022075         1.600885        -2.683748
 O         0.835450         3.002509        -2.843120
 C         1.617765         0.677436         0.733675
 O         1.300719         0.594393         1.892291
 H         3.640240         3.862451        -2.896822
 H         4.183676         2.247450        -2.825966
 H         3.269957         2.587937        -4.202172
 H         3.097305         2.038036        -0.715754
 H         2.426851         3.582869        -0.474697
 H         0.258806         2.249128         0.240810
 H         0.241347         0.025382        -1.381877
 H        -0.652428         1.606217        -1.512505
 H         1.113807         1.056767        -3.576400
 H         2.367897        -0.054234         0.366499
