19
Iteration:  2242charge 0 multiplicity 1
 C         3.450615         2.585690        -2.958506
 C         2.196293         2.441611        -2.268985
 C         1.928276         2.797046        -0.784077
 C         0.932483         1.805765        -0.208541
 C         0.144564         1.253558        -1.332875
 C         0.965238         1.589250        -2.603786
 O         0.946790         2.926709        -2.928682
 C         1.727778         0.789460         0.525557
 O         1.535830         0.423820         1.690248
 H         3.815393         3.605399        -3.011086
 H         4.144345         2.146246        -2.348190
 H         3.290904         2.006639        -3.876714
 H         2.807993         2.757329        -0.005398
 H         1.379049         3.797277        -0.759117
 H         0.427943         2.199639         0.705117
 H         0.175857         0.175349        -1.284110
 H        -0.918674         1.739163        -1.476930
 H         0.950658         0.996698        -3.480447
 H         2.642216         0.425053        -0.051042
