19
Iteration:  1966
 C         3.179491         3.004768        -3.376768
 C         2.188477         2.568346        -2.356680
 C         2.429290         2.334219        -0.864351
 C         1.125180         1.516419        -0.342189
 C         0.493643         0.843321        -1.575049
 C         0.983872         1.707344        -2.709477
 O         0.879697         3.056880        -2.472987
 C         1.516206         0.646889         0.817751
 O         1.072088         0.904920         1.949264
 H         3.851031         3.791340        -2.986462
 H         3.857448         2.131180        -3.293831
 H         2.989034         2.946305        -4.407868
 H         3.286582         1.829590        -0.591383
 H         2.488726         3.245031        -0.327628
 H         0.480502         2.241879         0.083989
 H         0.926441        -0.137237        -1.710372
 H        -0.634141         0.922959        -1.362099
 H         0.945395         1.144931        -3.763042
 H         2.147762        -0.331029         0.667410
