19
Iteration:  2559
 C         2.971252         3.194292        -3.573148
 C         2.209699         2.493246        -2.422640
 C         2.660665         2.177473        -0.899711
 C         1.429176         1.643443        -0.228746
 C         0.903781         0.800248        -1.498115
 C         1.028912         1.632708        -2.705185
 O         0.774466         3.001675        -2.414405
 C         1.447874         0.784994         0.994190
 O         0.581430         0.818880         1.886995
 H         2.886370         4.386194        -3.493425
 H         4.007880         2.706419        -3.727317
 H         2.486302         3.013808        -4.548286
 H         3.527632         1.393112        -0.759995
 H         3.135537         3.033484        -0.433953
 H         0.673130         2.461306         0.043001
 H         1.334257        -0.198722        -1.671956
 H        -0.241444         0.524854        -1.347483
 H         0.853329         1.256343        -3.737784
 H         2.373850         0.197818         1.169705
