19
Iteration:  1113
 C         3.269195         2.324851        -3.212224
 C         2.126154         2.505316        -2.359076
 C         2.328775         2.601700        -0.740370
 C         1.078017         1.989274        -0.075111
 C         0.342543         1.316318        -1.284781
 C         0.932269         1.754943        -2.586333
 O         0.943270         3.154675        -2.860485
 C         1.604415         0.761341         0.606173
 O         1.211087         0.303104         1.710798
 H         4.009467         3.112285        -3.337277
 H         3.794534         1.517531        -2.870219
 H         2.835330         2.061963        -4.245222
 H         3.228372         2.106615        -0.406364
 H         2.651432         3.590311        -0.531479
 H         0.327525         2.617654         0.424378
 H         0.520799         0.216820        -1.248828
 H        -0.697937         1.755780        -1.226938
 H         0.822493         1.087446        -3.441233
 H         2.429045         0.182870         0.130932
