19
Iteration:  2225charge 0 multiplicity 1
 C         3.489482         2.546857        -2.912391
 C         2.062445         2.486535        -2.234403
 C         2.028130         2.943896        -0.777180
 C         0.970592         1.869771        -0.149925
 C         0.152084         1.173140        -1.364612
 C         0.970320         1.469715        -2.564056
 O         0.906142         2.986881        -2.918401
 C         1.725698         0.696095         0.501905
 O         1.525228         0.441122         1.638482
 H         3.556347         3.648239        -3.134601
 H         4.312355         2.049773        -2.207522
 H         3.559543         2.057337        -3.885036
 H         2.985359         2.878037        -0.354386
 H         1.663947         4.000725        -0.848472
 H         0.169817         2.429604         0.413213
 H         0.054824         0.055414        -1.252809
 H        -0.776282         1.661965        -1.522649
 H         1.108488         0.728825        -3.453707
 H         2.257241         0.019139        -0.239140
