19
Iteration:  3272
 C         2.914414         3.250968        -3.472425
 C         2.141326         2.542666        -2.355722
 C         2.581780         2.420377        -0.985058
 C         1.429467         1.730098        -0.271653
 C         0.929667         0.677197        -1.385082
 C         1.145088         1.463639        -2.599804
 O         0.768986         2.904897        -2.438169
 C         1.537551         0.843783         1.018725
 O         0.531955         0.724295         1.636686
 H         3.333523         4.186819        -3.176805
 H         3.651159         2.519484        -3.875325
 H         2.390926         3.394208        -4.438580
 H         3.504671         1.866291        -0.822264
 H         2.976748         3.410858        -0.532424
 H         0.730082         2.519527        -0.072994
 H         1.648625        -0.151571        -1.236721
 H        -0.063570         0.330843        -1.285895
 H         0.909413         0.992357        -3.531950
 H         2.494712         0.332468         1.451587
