19
Iteration:  3432charge 0 multiplicity 1
 C         3.296529         3.145241        -3.062153
 C         2.132839         2.611672        -2.333343
 C         2.044236         2.690912        -0.821907
 C         0.998660         1.682486        -0.250476
 C         0.513388         0.847807        -1.533458
 C         1.192269         1.401518        -2.771581
 O         0.817407         2.790120        -2.938261
 C         1.434653         0.640133         0.809096
 O         1.413916         0.772458         2.036863
 H         3.566191         4.148830        -2.646864
 H         4.025366         2.421187        -2.770277
 H         3.250129         3.121927        -4.259292
 H         3.019922         2.486690        -0.375751
 H         1.865269         3.693749        -0.639265
 H         0.158734         2.353139         0.175726
 H         0.713309        -0.245363        -1.457561
 H        -0.607460         0.782570        -1.634804
 H         1.479859         0.839079        -3.643117
 H         2.047802        -0.227985         0.276773
