19
Iteration:  3502charge 0 multiplicity 1
 C         3.455523         2.900475        -2.835229
 C         2.134284         2.520035        -2.160604
 C         1.761873         2.681290        -0.734559
 C         0.701054         1.505430        -0.285063
 C         0.353097         0.776923        -1.638022
 C         1.169559         1.462106        -2.778333
 O         0.845617         2.926413        -2.905657
 C         1.595834         0.746199         0.663449
 O         1.775916         1.017185         1.812567
 H         3.619256         3.937190        -2.676243
 H         4.183727         2.278337        -2.231721
 H         3.573691         2.508468        -3.807294
 H         2.588652         2.656129        -0.066820
 H         1.204132         3.691822        -0.451671
 H        -0.196400         1.870996         0.246483
 H         0.513050        -0.321559        -1.709762
 H        -0.646022         0.673258        -2.029443
 H         1.513308         1.234211        -3.825708
 H         2.230955        -0.111246         0.291407
