19
Iteration:  4971charge 0 multiplicity 1
 C         3.457879         2.824179        -2.239972
 C         1.885410         2.627667        -2.063052
 C         1.184171         3.175977        -0.834683
 C         0.657035         1.877054        -0.168723
 C         0.288661         0.959409        -1.406478
 C         1.302958         1.293210        -2.467598
 O         1.057648         2.432333        -3.283486
 C         1.648390         1.286735         0.830697
 O         2.226768         0.207154         0.834382
 H         3.753443         3.908163        -2.114929
 H         4.091934         2.397207        -1.492349
 H         3.949604         2.618601        -3.258767
 H         1.906711         3.626712        -0.196998
 H         0.317743         3.924092        -1.254086
 H        -0.190926         2.062412         0.496829
 H         0.444814        -0.128279        -0.950608
 H        -0.786315         1.093085        -1.653265
 H         1.713734         0.456095        -2.958014
 H         1.759382         1.860714         1.742337
