19
Iteration:   808charge 0 multiplicity 1
 C         3.422218         2.225930        -3.072142
 C         2.180648         2.297792        -2.336991
 C         2.073406         2.641452        -0.824494
 C         0.905078         1.758164        -0.176008
 C         0.007469         1.531346        -1.318792
 C         0.804515         1.824774        -2.643276
 O         1.163022         3.218558        -2.813550
 C         1.505427         0.539892         0.571878
 O         1.726508         0.505704         1.769124
 H         4.061863         3.154530        -2.931339
 H         3.948152         1.355677        -2.655214
 H         3.172866         2.143558        -4.319006
 H         3.143443         2.521698        -0.584396
 H         1.939955         3.744499        -0.620837
 H         0.523935         2.537403         0.563415
 H        -0.451731         0.584942        -1.411933
 H        -0.764538         2.286134        -1.196661
 H         0.495113         1.350933        -3.558913
 H         1.507956        -0.483829         0.056585
