19
Iteration:  3503charge 0 multiplicity 1
 C         3.456442         2.893887        -2.832562
 C         2.139591         2.527806        -2.169104
 C         1.758434         2.684285        -0.739452
 C         0.694626         1.497627        -0.287310
 C         0.356071         0.785845        -1.633963
 C         1.167082         1.462258        -2.778660
 O         0.843900         2.923231        -2.902604
 C         1.596987         0.746408         0.664104
 O         1.777805         1.018239         1.813971
 H         3.620462         3.933277        -2.680495
 H         4.179150         2.275117        -2.227612
 H         3.565543         2.498418        -3.760554
 H         2.585411         2.697209        -0.018047
 H         1.203023         3.684230        -0.448623
 H        -0.168813         1.850937         0.231859
 H         0.534734        -0.295574        -1.713165
 H        -0.627159         0.669688        -2.047701
 H         1.485825         1.227167        -3.831211
 H         2.227176        -0.156470         0.266323
