19
Iteration:  2315charge 0 multiplicity 1
 C         3.449861         2.633013        -2.936582
 C         2.094223         2.546677        -2.278182
 C         2.027479         2.917659        -0.800741
 C         1.009246         1.888374        -0.212646
 C         0.244013         1.139963        -1.323830
 C         0.984680         1.506295        -2.594837
 O         0.892112         2.929982        -2.920806
 C         1.734251         0.661452         0.505459
 O         1.425417         0.447733         1.715539
 H         4.054329         3.535952        -2.671419
 H         4.018311         1.708930        -2.560398
 H         3.350401         2.479545        -4.090563
 H         3.012039         2.869386        -0.394881
 H         1.646739         3.885611        -0.765069
 H         0.379134         2.284623         0.529542
 H         0.385238         0.056893        -1.162774
 H        -0.775344         1.463016        -1.287518
 H         0.768361         0.949639        -3.474340
 H         2.131615        -0.186356        -0.116076
