19
Iteration:  1776charge 0 multiplicity 1
 C         3.283598         2.657879        -3.310402
 C         2.085258         2.563116        -2.332053
 C         2.308447         2.578856        -0.860876
 C         1.165560         1.679081        -0.225726
 C         0.494528         0.991693        -1.470995
 C         1.022499         1.620501        -2.659710
 O         0.840829         3.177627        -2.599116
 C         1.664203         0.710751         0.752311
 O         1.026325         0.587707         1.845055
 H         3.762775         3.616908        -3.169318
 H         4.057740         1.818325        -3.196538
 H         2.871830         2.625480        -4.388205
 H         3.285927         2.260945        -0.587576
 H         2.294484         3.693105        -0.658495
 H         0.357956         2.271871         0.321551
 H         0.709929        -0.098710        -1.468310
 H        -0.564382         1.124204        -1.374060
 H         0.933486         1.188671        -3.671152
 H         2.686278         0.251022         0.590440
