19
Iteration:  4833
 C         3.437292         3.023116        -2.495975
 C         2.041250         2.466344        -1.994583
 C         1.378974         3.101471        -0.774216
 C         0.592350         1.875642        -0.164831
 C         0.257774         0.996532        -1.372458
 C         1.412610         1.199338        -2.346909
 O         1.035337         2.417007        -3.152714
 C         1.400967         1.193288         0.872889
 O         2.221486         0.304078         0.721096
 H         3.473195         4.130375        -2.327441
 H         4.252406         2.646220        -1.787389
 H         3.567921         2.862452        -3.595732
 H         2.084133         3.886732        -0.305089
 H         0.649015         3.634111        -1.287318
 H        -0.291579         2.351684         0.303388
 H         0.187640         0.007880        -1.132162
 H        -0.626730         1.395382        -1.835628
 H         1.790355         0.260839        -2.765652
 H         1.159333         1.594093         1.937082
