19
Iteration:  1484charge 0 multiplicity 1
 C         3.415271         2.501571        -2.956407
 C         2.172500         2.380908        -2.262870
 C         2.034723         2.567707        -0.727279
 C         0.753673         1.666056        -0.242468
 C         0.053452         1.214033        -1.519515
 C         0.894576         1.757197        -2.732324
 O         1.050180         3.136747        -2.792656
 C         1.578231         0.607177         0.627009
 O         1.800392         0.722704         1.755787
 H         3.873687         3.557724        -2.966553
 H         4.247326         1.979708        -2.450250
 H         3.179306         2.190137        -3.998035
 H         2.949294         2.164064        -0.273151
 H         1.992422         3.570886        -0.440890
 H         0.126866         2.418446         0.239552
 H        -0.031937         0.080694        -1.619753
 H        -0.996747         1.649697        -1.462546
 H         0.851588         1.100124        -3.587118
 H         1.959936        -0.175871        -0.052350
