19
Iteration:  4696charge 0 multiplicity 1
 C         3.260221         3.283414        -2.742854
 C         2.007660         2.683199        -2.210253
 C         1.619551         2.998278        -0.815792
 C         0.775811         1.789365        -0.223915
 C         0.478608         0.880473        -1.341780
 C         1.540339         1.267596        -2.421549
 O         0.946059         2.414855        -3.103412
 C         1.434282         1.216668         0.913314
 O         1.733633         0.073762         1.168317
 H         3.255351         4.396342        -2.670481
 H         4.232129         2.999884        -2.294000
 H         3.409954         2.957061        -3.759964
 H         2.667405         3.106717        -0.275910
 H         1.277248         4.135738        -0.711347
 H        -0.113292         2.428171         0.152758
 H         0.592150        -0.290663        -1.139342
 H        -0.554885         1.045257        -1.746742
 H         1.891770         0.561480        -3.159407
 H         1.655750         1.982763         1.680409
