19
Iteration:  1517
 C         3.438843         2.529560        -2.921011
 C         2.139149         2.464979        -2.242999
 C         2.093799         2.756251        -0.758841
 C         0.888154         1.793311        -0.225798
 C         0.159009         1.245482        -1.371563
 C         0.991242         1.617458        -2.613287
 O         0.925481         3.020187        -2.874280
 C         1.436868         0.603057         0.508423
 O         1.748410         0.582568         1.687985
 H         4.058812         3.453207        -2.714665
 H         3.834223         1.499349        -2.842429
 H         3.360953         2.642112        -4.012861
 H         2.991461         2.391487        -0.236030
 H         2.022839         3.760135        -0.541922
 H         0.207745         2.525424         0.212096
 H        -0.089708         0.133764        -1.453997
 H        -0.856668         1.766597        -1.284082
 H         1.073139         0.997299        -3.506443
 H         1.438352        -0.318051        -0.108349
