19
Iteration:   544
 C         3.155045         2.616868        -3.603121
 C         2.161495         2.294463        -2.529174
 C         2.697074         1.944874        -1.122401
 C         1.419628         1.707618        -0.331127
 C         0.433766         1.079757        -1.265960
 C         0.669794         1.978800        -2.506079
 O         1.122688         3.326650        -2.245422
 C         1.530998         0.854159         0.925886
 O         0.693224         0.734698         1.791498
 H         3.923018         3.345229        -3.261571
 H         3.675485         1.703947        -3.906692
 H         2.600842         3.136792        -4.547972
 H         3.408837         1.079788        -1.364775
 H         3.319033         2.729836        -0.553075
 H         1.056478         2.717097        -0.152324
 H         0.603496        -0.114098        -1.360056
 H        -0.575812         1.330357        -0.919711
 H         0.126431         1.776133        -3.445539
 H         2.550764         0.224759         1.012922
