19
Iteration:   549charge 0 multiplicity 1
 C         3.136898         2.641196        -3.594714
 C         2.134163         2.305088        -2.537322
 C         2.708392         1.929630        -1.134296
 C         1.400568         1.725870        -0.358133
 C         0.435599         1.050998        -1.276815
 C         0.684053         1.911015        -2.497041
 O         1.140761         3.342074        -2.250206
 C         1.516555         0.847905         0.917851
 O         0.701226         0.757377         1.823686
 H         3.905069         3.309264        -3.185838
 H         3.738117         1.737994        -3.960945
 H         2.739085         3.237631        -4.359123
 H         3.322570         1.072799        -1.353747
 H         3.540478         2.442974        -0.594484
 H         1.039489         2.728646        -0.023882
 H         0.643311         0.086078        -1.569383
 H        -0.590961         1.203296        -0.919290
 H         0.043645         1.911989        -3.394701
 H         2.508404         0.366945         1.005467
