19
Iteration:  3920
 C         3.235435         3.473127        -2.947889
 C         2.083795         2.621612        -2.238111
 C         1.939327         2.795350        -0.781605
 C         0.852495         1.753334        -0.296483
 C         0.754324         0.603243        -1.399540
 C         1.459172         1.258797        -2.664071
 O         0.826070         2.547634        -2.963170
 C         1.147953         1.319576         1.091699
 O         1.574128         0.211444         1.357232
 H         3.183238         4.482497        -2.512960
 H         4.156762         2.945345        -2.895444
 H         2.947132         3.635143        -3.930692
 H         2.904249         2.263480        -0.485177
 H         1.733244         3.875139        -0.400443
 H        -0.030120         2.472673        -0.047394
 H         1.056127        -0.304123        -0.924118
 H        -0.273758         0.510169        -1.657985
 H         1.769241         0.643741        -3.594194
 H         1.061491         2.008333         1.984588
