19
Iteration:  1397
 C         3.338854         2.754586        -3.305564
 C         2.205603         2.409234        -2.319281
 C         2.293523         2.386661        -0.807351
 C         1.011256         1.762231        -0.286047
 C         0.330074         1.102724        -1.501853
 C         0.959147         1.637775        -2.728699
 O         0.974741         3.190124        -2.652353
 C         1.203017         0.650558         0.742658
 O         1.559128         0.698506         1.973391
 H         3.739676         3.855801        -3.171081
 H         4.142764         1.989062        -3.314057
 H         2.778986         2.777026        -4.297941
 H         3.117163         1.691489        -0.490153
 H         2.496366         3.290329        -0.314038
 H         0.340669         2.501008         0.181406
 H         0.519190         0.023794        -1.534665
 H        -0.793799         1.203597        -1.541125
 H         0.661525         0.967097        -3.513179
 H         0.944597        -0.335446         0.377034
