19
Iteration:  1162
 C         3.325850         2.462907        -3.288728
 C         2.122043         2.409309        -2.393624
 C         2.318319         2.465513        -0.872832
 C         1.189586         1.701659        -0.242723
 C         0.288009         1.199334        -1.406420
 C         0.831075         1.806644        -2.731098
 O         0.995327         3.246444        -2.620613
 C         1.627630         0.686460         0.802531
 O         1.130462         0.580156         1.867857
 H         3.915090         3.372482        -3.040992
 H         4.126066         1.589619        -3.366650
 H         2.980235         2.673334        -4.245780
 H         3.335647         2.084631        -0.746869
 H         2.460342         3.513110        -0.454326
 H         0.719200         2.458883         0.411259
 H         0.445149         0.143561        -1.477170
 H        -0.698661         1.516714        -1.215020
 H         0.455504         1.349529        -3.694791
 H         2.384013        -0.087812         0.511120
