19
Iteration:  4679
 C         3.256408         3.367735        -2.862141
 C         2.105673         2.611594        -2.199395
 C         1.732452         3.017963        -0.739085
 C         0.743694         1.906029        -0.281251
 C         0.581457         0.793980        -1.384686
 C         1.494314         1.226304        -2.480672
 O         0.880397         2.439712        -3.020829
 C         1.403554         1.237974         0.988538
 O         1.646854         0.052704         1.155724
 H         3.023805         4.417938        -2.677782
 H         4.185826         3.049030        -2.372905
 H         3.490262         3.069186        -3.959995
 H         2.571825         3.121609        -0.100631
 H         1.181103         3.897003        -0.744540
 H        -0.206475         2.134541         0.150637
 H         0.695609        -0.110184        -0.898724
 H        -0.409632         0.802106        -1.822599
 H         2.020547         0.450672        -3.072506
 H         1.784393         1.923100         1.844679
