19
Iteration:  1706charge 0 multiplicity 1
 C         3.406536         2.717464        -3.077935
 C         2.119342         2.429376        -2.345499
 C         2.316700         2.767510        -0.827852
 C         1.129759         1.884674        -0.095535
 C         0.195889         1.293944        -1.309297
 C         0.965457         1.521415        -2.567938
 O         0.808536         2.945699        -3.009549
 C         1.656879         0.765398         0.671753
 O         1.253398         0.295508         1.740611
 H         3.734808         3.824147        -2.791537
 H         4.175670         1.946908        -2.912168
 H         3.189906         2.727883        -4.172807
 H         3.258835         2.221227        -0.579905
 H         2.399339         3.751011        -0.381894
 H         0.584479         2.522478         0.579186
 H        -0.007808         0.137447        -1.105152
 H        -0.811143         1.815238        -1.468314
 H         0.916823         0.801280        -3.406896
 H         2.646059         0.437503         0.195471
