19
Iteration:  4969charge 0 multiplicity 1
 C         3.445494         2.819466        -2.230628
 C         1.872656         2.624240        -2.078265
 C         1.179349         3.183447        -0.824408
 C         0.653783         1.868179        -0.175324
 C         0.299852         0.959835        -1.392488
 C         1.291377         1.296474        -2.465780
 O         1.070025         2.443422        -3.286496
 C         1.640772         1.277281         0.830352
 O         2.233888         0.215269         0.833826
 H         3.810805         3.899098        -2.185064
 H         4.129616         2.376522        -1.459718
 H         3.924352         2.620547        -3.264091
 H         1.954447         3.577078        -0.199764
 H         0.346365         3.886994        -1.275399
 H        -0.184008         2.042440         0.513228
 H         0.413304        -0.131120        -1.014087
 H        -0.740542         1.109507        -1.675749
 H         1.723974         0.391292        -2.908797
 H         1.763515         1.924031         1.728086
