19
Iteration:  1602
 C         3.468451         2.450387        -2.888833
 C         2.094601         2.452391        -2.272531
 C         2.032347         2.754876        -0.814297
 C         0.960213         1.884127        -0.137886
 C         0.167274         1.299240        -1.343585
 C         0.945283         1.588485        -2.603616
 O         0.909456         3.010667        -2.890906
 C         1.725337         0.725057         0.468504
 O         1.527921         0.429592         1.641326
 H         3.878990         3.429901        -2.950217
 H         4.192588         1.807389        -2.347402
 H         3.277327         2.121621        -3.957000
 H         2.997528         2.557587        -0.280129
 H         1.719782         3.829825        -0.548305
 H         0.364831         2.469930         0.614546
 H        -0.043329         0.217010        -1.291347
 H        -0.825523         1.775637        -1.421549
 H         0.750783         1.157547        -3.575087
 H         2.545825         0.342772        -0.118893
