19
Iteration:  2766charge 0 multiplicity 1
 C         3.429104         2.816368        -3.006964
 C         2.100371         2.532295        -2.280195
 C         1.973414         2.650638        -0.773025
 C         0.873209         1.593610        -0.184357
 C         0.314646         1.028179        -1.494246
 C         1.067532         1.570225        -2.724976
 O         0.923810         2.953078        -2.962368
 C         1.613029         0.692748         0.691944
 O         1.533092         0.715055         1.887647
 H         3.472413         3.899719        -3.242253
 H         4.183056         2.458187        -2.323097
 H         3.520835         2.401191        -3.971879
 H         2.960920         2.623467        -0.214158
 H         1.387635         3.661819        -0.624836
 H         0.176544         2.158687         0.353665
 H         0.356394        -0.046825        -1.571218
 H        -0.779535         1.176435        -1.589723
 H         1.173684         0.956074        -3.537998
 H         2.361441         0.026640         0.210338
