19
Iteration:  4502charge 0 multiplicity 1
 C         3.038590         3.547518        -3.119177
 C         2.107115         2.614197        -2.370005
 C         2.168034         2.708901        -0.832036
 C         1.039610         1.732506        -0.334257
 C         1.113586         0.640190        -1.420038
 C         1.459292         1.368463        -2.656695
 O         0.758461         2.578939        -2.781724
 C         1.079992         1.242343         1.113515
 O         1.138482         0.129567         1.537535
 H         3.090712         4.598486        -2.671245
 H         4.074394         3.202508        -3.243342
 H         2.539851         3.792251        -4.217073
 H         3.170577         2.389991        -0.478446
 H         2.177272         3.682558        -0.251093
 H         0.164928         2.392583        -0.479113
 H         2.010180        -0.053566        -1.092507
 H         0.177943         0.054949        -1.574903
 H         1.567225         0.863650        -3.583835
 H         1.163076         2.065243         1.945773
