19
Iteration:  2686
 C         3.276001         2.971929        -3.303443
 C         2.125898         2.605629        -2.321555
 C         2.256084         2.561582        -0.756701
 C         1.140832         1.597538        -0.320973
 C         0.513526         0.871711        -1.504368
 C         1.138936         1.519800        -2.712995
 O         0.811718         3.025229        -2.812146
 C         1.492306         0.629242         0.866032
 O         1.159202         0.757399         2.017997
 H         3.959858         3.695746        -2.938456
 H         3.856376         2.051959        -3.427342
 H         2.705150         3.169824        -4.213347
 H         3.272145         2.343715        -0.472082
 H         1.860053         3.692270        -0.556638
 H         0.381399         2.340123         0.135967
 H         0.833362        -0.170497        -1.520396
 H        -0.605591         1.022288        -1.556435
 H         1.101259         0.980027        -3.754356
 H         2.344233        -0.118522         0.700868
