19
Iteration:   897
 C         3.459852         2.224548        -3.023667
 C         2.146881         2.317750        -2.198688
 C         2.111627         2.858659        -0.775160
 C         1.051143         1.933952        -0.030665
 C        -0.059084         1.617182        -1.213334
 C         0.812454         1.713633        -2.518381
 O         1.172291         3.012111        -2.925224
 C         1.497609         0.559103         0.366092
 O         1.633812         0.353990         1.561837
 H         3.979775         3.171638        -3.151215
 H         4.078056         1.448761        -2.674778
 H         3.232356         2.063891        -4.127405
 H         3.083996         2.908273        -0.281682
 H         1.529350         3.826277        -0.708217
 H         0.626120         2.571044         0.778049
 H        -0.563306         0.685134        -1.139822
 H        -0.778152         2.420425        -1.291757
 H         0.505035         1.034855        -3.346063
 H         1.757626        -0.081224        -0.490634
