19
Iteration:   866
 C         3.382435         2.208859        -3.040911
 C         2.150391         2.383255        -2.221533
 C         2.177831         2.683628        -0.664554
 C         0.910202         2.036638        -0.074214
 C         0.005087         1.581232        -1.317118
 C         0.891127         1.680579        -2.552901
 O         1.075647         3.063984        -2.895999
 C         1.432425         0.680249         0.429331
 O         1.744039         0.335324         1.552418
 H         3.935701         3.159290        -3.148081
 H         4.114140         1.489754        -2.411103
 H         3.188637         1.579874        -3.917685
 H         3.173120         2.336549        -0.280463
 H         2.066866         3.798083        -0.449336
 H         0.501149         2.743106         0.643093
 H        -0.582391         0.634682        -1.155813
 H        -0.788776         2.325576        -1.501689
 H         0.746112         1.007126        -3.453292
 H         1.726543         0.095074        -0.500404
