19
Iteration:   917
 C         3.454058         2.164805        -2.938102
 C         2.074862         2.425793        -2.295790
 C         2.096958         2.788943        -0.725849
 C         0.998285         1.936823        -0.106499
 C         0.040864         1.697972        -1.201195
 C         0.881608         1.721079        -2.485305
 O         1.046784         3.069581        -3.077186
 C         1.635449         0.591329         0.426061
 O         1.588342         0.268623         1.613934
 H         4.112866         3.060666        -2.881312
 H         3.871930         1.323366        -2.536441
 H         3.390609         1.986603        -4.119234
 H         3.169673         2.605913        -0.413069
 H         1.737083         3.838393        -0.693435
 H         0.449461         2.372927         0.808168
 H        -0.529165         0.814724        -0.985584
 H        -0.687624         2.516875        -1.227440
 H         0.760937         0.850356        -3.120402
 H         1.963398        -0.092387        -0.479423
