19
Iteration:   830
 C         3.398121         2.178311        -2.959696
 C         2.120225         2.348037        -2.228971
 C         2.171461         2.574154        -0.722136
 C         0.994529         1.909631        -0.163948
 C        -0.052155         1.558879        -1.376356
 C         0.794063         1.825504        -2.590035
 O         1.066449         3.168055        -2.944117
 C         1.483433         0.544294         0.499112
 O         1.750196         0.486035         1.663789
 H         3.895434         3.181576        -3.135640
 H         3.983483         1.588548        -2.264927
 H         3.430691         1.904405        -4.166684
 H         3.188377         2.214415        -0.391112
 H         2.200066         3.682901        -0.421015
 H         0.534092         2.496069         0.711076
 H        -0.366168         0.569340        -1.222965
 H        -0.824396         2.305758        -1.477266
 H         0.642055         1.219691        -3.473571
 H         1.920223        -0.276769        -0.143557
