19
Iteration:  3061charge 0 multiplicity 1
 C         3.393269         2.732473        -2.829549
 C         2.056089         2.538132        -2.221805
 C         1.904797         2.873652        -0.809617
 C         0.951668         1.722699        -0.209369
 C         0.264669         0.963453        -1.455351
 C         1.106368         1.478455        -2.689827
 O         0.882218         2.918595        -3.038247
 C         1.788114         0.809970         0.642319
 O         1.494861         0.549047         1.767985
 H         3.715094         3.795429        -2.765099
 H         4.070448         1.996488        -2.369556
 H         3.223741         2.339385        -3.922922
 H         2.801938         2.868180        -0.287229
 H         1.486582         3.926939        -0.603612
 H         0.038890         2.137001         0.346385
 H         0.408644        -0.119987        -1.286128
 H        -0.815197         1.366170        -1.494455
 H         1.225490         0.896397        -3.615769
 H         2.808666         0.494295         0.224379
