19
Iteration:  2721charge 0 multiplicity 1
 C         3.367141         2.871557        -3.022313
 C         2.047638         2.502079        -2.275364
 C         2.134925         2.527401        -0.813160
 C         0.982811         1.784451        -0.275589
 C         0.493047         0.970791        -1.495024
 C         1.116094         1.491328        -2.733583
 O         0.774917         2.957697        -2.827240
 C         1.516187         0.763670         0.671831
 O         1.388330         0.710459         1.880868
 H         3.803760         3.866587        -2.846903
 H         4.083719         2.058086        -2.808360
 H         3.286840         2.907617        -4.071408
 H         3.034757         2.182422        -0.286798
 H         2.068983         3.634930        -0.337382
 H         0.184165         2.340470         0.286647
 H         0.768993        -0.043304        -1.297619
 H        -0.638906         0.803044        -1.603342
 H         1.045787         1.017790        -3.713260
 H         2.422169         0.223106         0.172177
