19
Iteration:  1890
 C         3.083111         3.214760        -3.350361
 C         2.181310         2.488977        -2.399507
 C         2.670181         2.004274        -1.007581
 C         1.309625         1.452905        -0.413037
 C         0.579039         0.788766        -1.537521
 C         0.975576         1.672966        -2.733409
 O         0.847782         3.059663        -2.361764
 C         1.348804         0.680292         0.886037
 O         0.921838         1.101183         1.997071
 H         3.493240         4.118116        -2.744705
 H         3.995332         2.684138        -3.641237
 H         2.589609         3.583892        -4.259254
 H         3.437054         1.146472        -1.083605
 H         3.125680         2.799187        -0.429351
 H         0.805379         2.372833        -0.244346
 H         1.000394        -0.189070        -1.750843
 H        -0.561701         0.688537        -1.299656
 H         0.683098         1.495308        -3.888296
 H         1.903864        -0.280332         0.896597
