19
Iteration:  1577
 C         3.447237         2.549172        -2.989450
 C         2.094287         2.408453        -2.246856
 C         2.018323         2.774428        -0.781044
 C         1.003225         1.809504        -0.166757
 C        -0.022934         1.418639        -1.407772
 C         0.941164         1.573859        -2.578854
 O         1.006772         2.967982        -2.967534
 C         1.708749         0.593852         0.572545
 O         1.589986         0.469435         1.721452
 H         3.936281         3.371911        -2.492045
 H         4.232523         1.798129        -2.790725
 H         3.256656         2.753903        -4.072075
 H         2.921165         2.694598        -0.184709
 H         1.623263         3.851270        -0.694355
 H         0.454708         2.262513         0.689070
 H        -0.257036         0.394691        -1.434191
 H        -0.891010         2.004260        -1.343920
 H         1.133377         0.981607        -3.466110
 H         2.343347        -0.040930        -0.070988
