19
Iteration:    92
 C         3.248911         2.507752        -3.429441
 C         2.214527         2.445264        -2.350923
 C         2.638115         2.336461        -0.833471
 C         1.372408         1.870344        -0.219270
 C         0.416260         1.125588        -1.166158
 C         0.851390         1.766403        -2.476266
 O         0.930318         3.248560        -2.556649
 C         1.534459         1.124340         1.003086
 O         0.731562         0.195685         1.223510
 H         3.716860         3.466416        -3.339554
 H         4.060233         1.771123        -3.315091
 H         2.790313         2.543382        -4.450527
 H         3.417532         1.491469        -0.805030
 H         3.013979         3.273996        -0.377502
 H         0.822765         2.781076         0.107411
 H         0.595941        -0.009465        -1.181140
 H        -0.659945         1.267493        -0.927095
 H         0.556480         1.374790        -3.425149
 H         2.337681         1.428423         1.737102
