19
Iteration:  2585
 C         3.036328         3.242456        -3.452012
 C         2.145995         2.531077        -2.443633
 C         2.646958         2.283369        -1.060740
 C         1.439497         1.510266        -0.330007
 C         0.755959         0.650249        -1.445385
 C         1.012638         1.563996        -2.617767
 O         0.870203         3.082452        -2.475281
 C         1.501982         0.778237         1.047110
 O         0.588716         0.870423         1.901087
 H         2.847717         4.290990        -3.348173
 H         4.068753         2.955899        -3.420337
 H         2.646759         2.962025        -4.455576
 H         3.442281         1.648333        -1.083710
 H         3.101161         3.075967        -0.518861
 H         0.704466         2.229759        -0.118245
 H         1.063273        -0.387798        -1.691267
 H        -0.250550         0.523530        -1.240871
 H         0.729463         1.228941        -3.583448
 H         2.382845         0.133676         1.327164
