19
Iteration:  1547charge 0 multiplicity 1
 C         3.437554         2.592451        -3.039386
 C         2.078231         2.487628        -2.281239
 C         2.038974         2.749351        -0.682845
 C         0.928567         1.822392        -0.077872
 C         0.113362         1.364207        -1.389033
 C         0.998435         1.570966        -2.639575
 O         0.981622         2.972411        -3.086019
 C         1.485608         0.635938         0.585846
 O         1.728260         0.418150         1.798731
 H         4.026952         3.216909        -2.472508
 H         4.000329         1.623875        -3.034048
 H         3.351508         2.857825        -4.174505
 H         2.954274         2.502163        -0.106695
 H         1.778244         3.853526        -0.398068
 H         0.202242         2.468768         0.473385
 H        -0.268768         0.339021        -1.457797
 H        -0.743129         2.063611        -1.278117
 H         1.253352         0.970051        -3.485866
 H         1.705267        -0.212363        -0.154569
