19
Iteration:  2473
 C         3.248517         2.888788        -3.367611
 C         2.096149         2.589456        -2.435744
 C         2.299516         2.488879        -0.867207
 C         1.096541         1.726613        -0.228001
 C         0.587743         0.890924        -1.425499
 C         1.068656         1.608463        -2.714011
 O         0.849058         3.082542        -2.766152
 C         1.643026         0.874210         0.999768
 O         0.995956         0.480075         1.910132
 H         3.889260         3.690566        -2.797269
 H         3.929443         2.005516        -3.533746
 H         2.753427         3.216439        -4.272367
 H         3.159093         1.817572        -0.770161
 H         2.604792         3.407325        -0.325533
 H         0.407987         2.423874         0.326694
 H         0.838421        -0.178359        -1.254688
 H        -0.561296         0.800415        -1.393181
 H         0.829466         1.059454        -3.652093
 H         2.705543         0.563617         0.865163
