19
Iteration:  1244
 C         3.212015         2.984758        -3.346665
 C         2.205217         2.393614        -2.434102
 C         2.556196         1.940696        -1.022578
 C         1.282631         1.542330        -0.358604
 C         0.419299         0.895857        -1.535857
 C         0.818301         1.842035        -2.684677
 O         1.014669         3.220023        -2.377073
 C         1.194576         0.624943         0.840439
 O         1.166810         1.069680         2.034166
 H         3.658008         3.973387        -3.123801
 H         4.035733         2.299516        -3.491421
 H         2.910633         3.046824        -4.469962
 H         3.244852         1.012585        -1.130307
 H         3.109108         2.746688        -0.574770
 H         0.763869         2.504083        -0.246117
 H         0.681513        -0.165802        -1.650312
 H        -0.671256         0.792355        -1.209414
 H         0.622790         1.548087        -3.713906
 H         1.053468        -0.446147         0.660592
