19
Iteration:  4693
 C         3.269815         3.306587        -2.778875
 C         2.006131         2.647717        -2.211435
 C         1.645757         3.013141        -0.798725
 C         0.765230         1.794648        -0.217733
 C         0.497577         0.877110        -1.325842
 C         1.543636         1.268923        -2.412807
 O         0.941598         2.402106        -3.079917
 C         1.431172         1.204014         0.893684
 O         1.715379         0.066798         1.170608
 H         3.304634         4.374505        -2.733340
 H         4.197546         3.041199        -2.185064
 H         3.335781         3.103455        -3.781222
 H         2.568310         3.097725        -0.285612
 H         1.281899         4.075277        -0.696264
 H        -0.025229         2.452318         0.035995
 H         0.629212        -0.254294        -1.118187
 H        -0.547802         1.070022        -1.785682
 H         1.847020         0.650446        -3.299224
 H         1.572194         2.106694         1.621352
