19
Iteration:  4775charge 0 multiplicity 1
 C         3.424758         2.883562        -2.401910
 C         1.952153         2.603673        -2.065592
 C         1.333593         3.068379        -0.782692
 C         0.641050         1.813088        -0.244950
 C         0.532114         0.894195        -1.401453
 C         1.343784         1.347176        -2.544803
 O         0.896308         2.523047        -3.114194
 C         1.582855         1.341761         0.826633
 O         2.003106         0.220766         0.960653
 H         3.768869         3.888268        -2.714947
 H         4.057163         2.477712        -1.626817
 H         3.792244         2.176611        -3.311301
 H         2.343298         3.360426        -0.179352
 H         0.645647         3.890229        -1.131197
 H        -0.370361         2.182341         0.142112
 H         0.876130        -0.188389        -1.116807
 H        -0.502802         0.752821        -1.707263
 H         1.950714         0.668479        -3.186753
 H         1.913261         2.055305         1.658177
