19
Iteration:  2834
 C         3.473245         2.790871        -2.769667
 C         2.119281         2.408730        -2.227151
 C         1.880729         2.835432        -0.756637
 C         0.743954         1.843145        -0.213264
 C         0.219942         1.056243        -1.490043
 C         1.035796         1.441943        -2.719880
 O         0.936842         2.845989        -3.000408
 C         1.572689         0.767637         0.569265
 O         1.777737         0.612140         1.765415
 H         3.594933         3.838966        -2.500719
 H         4.254912         2.188167        -2.340449
 H         3.377546         2.857896        -3.881674
 H         2.944616         2.709932        -0.371141
 H         1.516533         3.850839        -0.754664
 H         0.019450         2.253997         0.390893
 H         0.420683        -0.015602        -1.299974
 H        -0.838575         1.131059        -1.545739
 H         1.262252         0.751654        -3.522173
 H         2.051512        -0.015480        -0.100941
