19
Iteration:  1178charge 0 multiplicity 1
 C         3.279109         2.648771        -3.370012
 C         2.190935         2.433145        -2.324020
 C         2.491736         2.324081        -0.873624
 C         1.178045         1.676507        -0.254468
 C         0.224424         1.146646        -1.445328
 C         0.877762         1.796652        -2.634292
 O         0.945728         3.230595        -2.667136
 C         1.573466         0.601779         0.823947
 O         1.112828         0.713505         1.888078
 H         4.025179         3.393105        -3.039378
 H         3.772801         1.672784        -3.288092
 H         2.866178         2.755220        -4.458207
 H         3.423644         1.676880        -0.617112
 H         2.614096         3.333859        -0.485980
 H         0.611696         2.345477         0.432712
 H         0.172306         0.032155        -1.693361
 H        -0.870145         1.538022        -1.282003
 H         0.768485         1.330861        -3.618814
 H         2.459469        -0.087254         0.491994
