19
Iteration:  3771
 C         3.198375         3.369167        -2.895235
 C         2.126977         2.517323        -2.239593
 C         1.960015         2.678978        -0.704424
 C         0.845357         1.798321        -0.328689
 C         0.622554         0.721411        -1.497267
 C         1.385387         1.318463        -2.665931
 O         0.852655         2.628259        -3.042468
 C         0.927788         1.042315         1.101660
 O         1.898452         0.461683         1.458239
 H         3.149262         4.362572        -2.400481
 H         4.113164         2.987956        -2.529611
 H         3.080096         3.557533        -4.048966
 H         3.020930         2.495864        -0.174201
 H         1.869454         3.739995        -0.434783
 H        -0.024209         2.366828        -0.332203
 H         1.017967        -0.327130        -1.369639
 H        -0.484528         0.794650        -1.877288
 H         1.938246         0.800808        -3.519011
 H         0.095615         1.018339         1.800082
