19
Iteration:  2508charge 0 multiplicity 1
 C         3.174794         2.970640        -3.356027
 C         2.180162         2.491527        -2.413677
 C         2.527769         2.474811        -0.934156
 C         1.339794         1.663934        -0.270818
 C         0.729789         0.812463        -1.389103
 C         0.947244         1.614014        -2.691343
 O         0.691665         3.004049        -2.562278
 C         1.643160         0.828908         0.949581
 O         0.743842         0.683285         1.807498
 H         3.668932         3.809325        -2.894899
 H         3.978226         2.340990        -3.701335
 H         2.830664         3.466465        -4.222019
 H         3.365877         1.782750        -0.900044
 H         2.729343         3.440760        -0.307267
 H         0.544998         2.321391        -0.042906
 H         1.130437        -0.223267        -1.507947
 H        -0.308071         0.896911        -1.257126
 H         0.590329         1.353959        -3.668564
 H         2.537056         0.152176         0.889127
