19
Iteration:  3148charge 0 multiplicity 1
 C         3.326305         2.977815        -3.134742
 C         2.089391         2.584296        -2.365476
 C         2.200196         2.813398        -0.777759
 C         1.188439         1.802177        -0.244899
 C         0.505262         0.926110        -1.387334
 C         1.117747         1.471930        -2.602360
 O         0.717799         2.792591        -2.944877
 C         1.653495         0.720556         0.768891
 O         1.100913         0.528770         1.859630
 H         3.487690         4.049007        -3.019733
 H         4.227992         2.492120        -2.850641
 H         3.327556         2.844605        -4.244305
 H         3.254174         2.473550        -0.621941
 H         2.162768         3.896337        -0.305319
 H         0.289070         2.434656         0.172576
 H         0.579899        -0.124183        -1.367834
 H        -0.617187         0.938026        -1.259042
 H         1.338271         0.895008        -3.525614
 H         2.438573         0.008664         0.342449
