19
Iteration:  4742charge 0 multiplicity 1
 C         3.412950         3.025929        -2.583085
 C         1.992806         2.601553        -2.153854
 C         1.370111         3.051772        -0.895321
 C         0.741986         1.803429        -0.241274
 C         0.501919         0.828357        -1.327885
 C         1.293651         1.342883        -2.453964
 O         0.989907         2.609798        -3.153200
 C         1.545564         1.265440         0.924350
 O         1.904542         0.097494         1.094540
 H         3.599882         4.113164        -2.771301
 H         4.159972         2.737370        -1.854545
 H         3.731014         2.365777        -3.538256
 H         2.122642         3.643575        -0.180941
 H         0.640405         3.898945        -1.071758
 H        -0.276289         2.131467         0.205514
 H         0.992849        -0.152853        -1.004694
 H        -0.507592         0.618058        -1.628988
 H         1.893930         0.811027        -3.157676
 H         1.616077         2.063913         1.707830
