19
Iteration:  3334charge 0 multiplicity 1
 C         3.075226         3.241452        -3.349480
 C         2.125476         2.527905        -2.484969
 C         2.481568         2.361611        -0.940944
 C         1.330370         1.659053        -0.302926
 C         0.947637         0.664542        -1.443574
 C         1.073325         1.515535        -2.636167
 O         0.713463         2.947100        -2.600559
 C         1.574587         0.920339         1.041807
 O         0.664257         0.719812         1.826797
 H         3.250486         4.265426        -3.026191
 H         3.996159         2.768889        -3.139647
 H         2.619591         3.255190        -4.419988
 H         3.318202         1.631091        -0.986687
 H         2.723383         3.343017        -0.498336
 H         0.353956         2.270902        -0.009025
 H         1.507657        -0.277317        -1.474835
 H        -0.101913         0.325609        -1.237320
 H         0.883184         1.114566        -3.671016
 H         2.654120         0.561449         1.278985
