19
Iteration:  1189charge 0 multiplicity 1
 C         3.243145         2.693784        -3.380062
 C         2.183527         2.490107        -2.383807
 C         2.493976         2.227707        -0.827190
 C         1.169358         1.624238        -0.258471
 C         0.297057         1.138575        -1.437325
 C         0.954525         1.758359        -2.644238
 O         0.931898         3.221418        -2.647716
 C         1.481258         0.662892         0.748094
 O         1.117301         0.739621         1.973894
 H         3.941052         3.535467        -3.161066
 H         3.890738         1.779745        -3.512429
 H         2.847730         2.965060        -4.469857
 H         3.415352         1.496212        -0.895172
 H         2.865880         3.055242        -0.225887
 H         0.712396         2.551254         0.161825
 H         0.204273        -0.009851        -1.465881
 H        -0.778870         1.616768        -1.392520
 H         0.580073         1.334595        -3.565247
 H         2.225801        -0.221894         0.551140
