19
Iteration:  1980charge 0 multiplicity 1
 C         3.235797         2.930514        -3.311041
 C         2.129838         2.480305        -2.356966
 C         2.382758         2.356834        -0.841433
 C         1.136573         1.669307        -0.273288
 C         0.515704         0.921117        -1.537493
 C         1.055724         1.635749        -2.766242
 O         0.848682         3.108175        -2.617142
 C         1.434320         0.664261         0.858164
 O         1.164223         0.760851         1.997073
 H         3.590124         3.943929        -3.049857
 H         4.088594         2.259446        -3.396235
 H         2.731182         3.107574        -4.320528
 H         3.336295         1.849250        -0.671937
 H         2.403686         3.374020        -0.447128
 H         0.420822         2.393204         0.120775
 H         0.814184        -0.107987        -1.548394
 H        -0.588391         0.866559        -1.627470
 H         0.880504         1.370563        -3.778917
 H         1.994816        -0.237256         0.431145
