19
Iteration:   655charge 0 multiplicity 1
 C         3.199607         2.598522        -3.491244
 C         2.119773         2.474484        -2.397600
 C         2.636035         1.947953        -1.020446
 C         1.272992         1.677764        -0.324822
 C         0.436543         1.079645        -1.446817
 C         0.802257         1.916775        -2.662175
 O         1.045561         3.332108        -2.352866
 C         1.260089         0.758766         0.825054
 O         1.107893         0.834665         2.025636
 H         3.701718         3.560662        -3.413057
 H         3.926092         1.800395        -3.545736
 H         2.659485         2.478045        -4.464965
 H         2.949570         0.970579        -1.356843
 H         3.418780         2.598018        -0.622994
 H         0.873478         2.649684         0.002556
 H         0.571015        -0.050110        -1.585646
 H        -0.641918         1.139741        -1.263005
 H         0.455246         1.691782        -3.597516
 H         1.474653        -0.312756         0.363011
