19
Iteration:  4898
 C         3.443759         2.898257        -2.313766
 C         2.013145         2.463153        -2.044872
 C         1.354934         3.077667        -0.824129
 C         0.524163         1.938654        -0.148662
 C         0.275559         0.860846        -1.410162
 C         1.342005         1.188607        -2.333100
 O         1.057518         2.502931        -3.080553
 C         1.460674         1.317123         0.846102
 O         2.241319         0.406721         0.548556
 H         3.621353         3.844994        -2.807047
 H         4.100115         2.812446        -1.465813
 H         3.796439         2.197864        -3.054065
 H         2.083963         3.325975         0.008947
 H         0.662662         3.769438        -0.949531
 H        -0.486949         2.212339         0.233753
 H         0.400736        -0.054479        -0.954465
 H        -0.743898         0.936836        -1.784219
 H         1.927249         0.463040        -2.873871
 H         1.491881         1.595861         1.877777
