19
Iteration:  4580charge 0 multiplicity 1
 C         3.097982         3.444154        -3.043733
 C         2.088699         2.619157        -2.248401
 C         2.090735         2.676012        -0.756919
 C         0.944446         1.584534        -0.391861
 C         1.099483         0.540851        -1.505302
 C         1.367650         1.442937        -2.695439
 O         0.768312         2.730009        -2.824182
 C         1.069948         1.303562         1.067448
 O         1.361371         0.238326         1.567806
 H         3.135464         4.526657        -2.765586
 H         4.089368         3.066733        -2.791537
 H         2.836425         3.197468        -4.237943
 H         2.991830         2.409039        -0.189621
 H         1.811477         3.763937        -0.489921
 H        -0.060083         2.012776        -0.573824
 H         2.012724        -0.173069        -1.518210
 H         0.234241        -0.171540        -1.472851
 H         1.524702         1.002551        -3.673488
 H         0.812195         2.124269         1.730547
