19
Iteration:  4477
 C         3.083061         3.404525        -3.154449
 C         2.082583         2.681962        -2.291515
 C         2.010734         2.864241        -0.757184
 C         1.068825         1.687651        -0.314156
 C         1.173705         0.507281        -1.388174
 C         1.464198         1.422277        -2.659299
 O         0.682364         2.676055        -2.794311
 C         1.293238         1.241519         1.085344
 O         1.055206         0.120321         1.447829
 H         3.223723         4.630776        -3.226745
 H         4.125649         2.855030        -2.831772
 H         2.944598         3.093403        -4.261427
 H         2.962950         2.710138        -0.242959
 H         1.732565         3.841460        -0.450767
 H         0.067662         2.142056        -0.317355
 H         1.992848        -0.087442        -1.067705
 H         0.263121        -0.033634        -1.531481
 H         1.768813         0.960553        -3.680950
 H         1.556778         2.013703         1.929683
