19
Iteration:  3380
 C         3.233377         3.030139        -3.270795
 C         2.079633         2.609385        -2.309324
 C         2.244734         2.562445        -0.792912
 C         1.096940         1.599018        -0.294941
 C         0.743123         0.717113        -1.546320
 C         1.203581         1.472493        -2.778629
 O         0.705214         2.943039        -2.655185
 C         1.630543         0.882746         0.876085
 O         0.989321         0.750993         1.907602
 H         3.290290         4.080290        -3.221288
 H         4.150769         2.687312        -2.869976
 H         2.944249         2.798774        -4.269275
 H         3.243304         2.048588        -0.713856
 H         2.174457         3.633415        -0.402493
 H         0.185679         2.268745        -0.017520
 H         1.267873        -0.244437        -1.484213
 H        -0.266822         0.412626        -1.614207
 H         1.069772         1.076343        -3.759053
 H         2.599871         0.270420         0.759242
