19
Iteration:  1985charge 0 multiplicity 1
 C         3.254285         2.908360        -3.278486
 C         2.143016         2.490683        -2.371065
 C         2.381432         2.389031        -0.850908
 C         1.124451         1.693418        -0.270739
 C         0.500526         0.916193        -1.526506
 C         1.063642         1.639694        -2.778761
 O         0.830536         3.119809        -2.650849
 C         1.408372         0.671850         0.820594
 O         1.189213         0.722665         2.026188
 H         3.525124         3.923697        -2.963664
 H         4.201621         2.365335        -3.563886
 H         2.679519         2.987111        -4.184722
 H         3.327785         1.763046        -0.646015
 H         2.503709         3.410092        -0.390462
 H         0.354649         2.402359         0.121692
 H         0.934596        -0.154093        -1.509838
 H        -0.589339         0.994259        -1.468168
 H         0.813733         1.142836        -3.777629
 H         1.990408        -0.203296         0.495591
