19
Iteration:   778
 C         3.348451         2.236306        -3.168759
 C         2.144191         2.391209        -2.245714
 C         2.284603         2.565001        -0.651873
 C         0.922427         1.792617        -0.162308
 C         0.065066         1.469715        -1.389775
 C         0.884668         1.861190        -2.658370
 O         1.054437         3.204801        -2.892823
 C         1.422674         0.570940         0.587275
 O         1.685879         0.549879         1.765796
 H         4.212355         2.907566        -3.022549
 H         3.585586         1.111918        -3.060846
 H         3.162245         2.547703        -4.209673
 H         3.238124         2.067061        -0.427405
 H         2.157398         3.620476        -0.229734
 H         0.376338         2.475242         0.545068
 H        -0.065763         0.310312        -1.385075
 H        -0.904427         2.021518        -1.303062
 H         0.669083         1.202171        -3.543501
 H         1.449324        -0.357110        -0.024729
