19
Iteration:  1301
 C         3.272393         2.924313        -3.247045
 C         2.126949         2.412700        -2.325219
 C         2.478966         1.774255        -0.968960
 C         1.033980         1.399187        -0.472522
 C         0.414530         0.825532        -1.743189
 C         0.817518         1.837471        -2.711164
 O         0.993649         3.273137        -2.193320
 C         1.348803         0.649788         0.810361
 O         1.296644         1.347408         1.919234
 H         3.766528         3.766487        -2.713345
 H         3.889751         2.099160        -3.362132
 H         2.732711         3.245587        -4.086130
 H         3.139776         0.869895        -1.216076
 H         3.107749         2.432905        -0.353086
 H         0.464760         2.299504        -0.316945
 H         0.922361        -0.151289        -1.906826
 H        -0.672198         0.735572        -1.670136
 H         0.695052         1.774277        -3.811369
 H         1.959747        -0.233910         0.772826
