19
Iteration:  1821
 C         3.221357         2.916980        -3.345195
 C         2.121478         2.474843        -2.444101
 C         2.445784         2.236473        -0.972241
 C         1.176950         1.692493        -0.306337
 C         0.625634         0.866523        -1.484289
 C         0.930072         1.742468        -2.783515
 O         0.826123         3.202606        -2.556087
 C         1.512460         0.734445         0.950419
 O         0.988564         0.719294         2.035355
 H         3.379380         3.966762        -3.055771
 H         4.195397         2.341108        -3.075688
 H         3.031425         2.840672        -4.461171
 H         3.156286         1.404974        -1.041990
 H         2.950714         3.027074        -0.356658
 H         0.438113         2.470570         0.083341
 H         1.254238        -0.083381        -1.527838
 H        -0.456759         0.616210        -1.339529
 H         0.828524         1.343458        -3.889068
 H         2.336629        -0.020615         0.669362
