19
Iteration:   869
 C         3.372332         2.199429        -3.036642
 C         2.153672         2.346487        -2.203464
 C         2.177092         2.729747        -0.696359
 C         0.916960         2.034363        -0.092382
 C        -0.003848         1.605525        -1.303514
 C         0.913951         1.681708        -2.552902
 O         1.072776         3.067824        -2.893139
 C         1.452995         0.662219         0.429990
 O         1.736638         0.325055         1.561336
 H         3.866726         3.174026        -3.210388
 H         4.111162         1.492413        -2.416738
 H         3.249256         1.727764        -3.964157
 H         3.040258         2.294935        -0.078087
 H         2.064481         3.777964        -0.522450
 H         0.498249         2.748620         0.582387
 H        -0.545629         0.586633        -1.173830
 H        -0.837080         2.334787        -1.482346
 H         0.726978         1.011026        -3.391562
 H         1.668677         0.062963        -0.545223
