19
Iteration:  3357charge 0 multiplicity 1
 C         3.238203         3.123285        -3.263862
 C         2.074015         2.568718        -2.369883
 C         2.452300         2.461787        -0.915368
 C         1.219031         1.610911        -0.350503
 C         0.844780         0.662219        -1.501234
 C         1.005192         1.546847        -2.736966
 O         0.670033         2.896267        -2.587759
 C         1.568690         0.951897         0.935015
 O         0.830086         0.718880         1.894821
 H         3.291878         4.174290        -3.110918
 H         4.109992         2.771112        -2.826687
 H         3.008478         2.969929        -4.362699
 H         3.477088         2.061341        -0.985207
 H         2.336931         3.502483        -0.520828
 H         0.340328         2.391911        -0.081884
 H         1.542623        -0.180697        -1.474092
 H        -0.103454         0.172767        -1.302218
 H         1.030353         1.209398        -3.772991
 H         2.682198         0.588187         1.001808
