19
Iteration:  4556
 C         3.065474         3.588215        -3.089243
 C         2.088628         2.617546        -2.337494
 C         2.205134         2.569665        -0.769311
 C         0.923459         1.667048        -0.414625
 C         1.049201         0.568404        -1.486875
 C         1.505704         1.384325        -2.740221
 O         0.745946         2.601010        -2.688155
 C         1.021868         1.303192         1.051302
 O         1.303785         0.263028         1.587811
 H         3.135499         4.597485        -2.468280
 H         4.153043         3.268085        -3.167259
 H         2.424544         3.680583        -4.161564
 H         3.070884         2.018162        -0.396115
 H         2.281796         3.531317        -0.299566
 H         0.123801         2.390334        -0.623747
 H         1.724713        -0.234301        -1.151348
 H         0.141523         0.012856        -1.646797
 H         1.687325         0.995485        -3.708968
 H         0.716459         2.115417         1.693781
