19
Iteration:  2859
 C         3.487174         2.730931        -2.717200
 C         2.076113         2.449489        -2.188384
 C         1.824673         2.765499        -0.724107
 C         0.805622         1.735009        -0.271215
 C         0.155899         1.048460        -1.466822
 C         1.079091         1.433684        -2.609605
 O         0.919711         2.874476        -3.027299
 C         1.704833         0.799312         0.479525
 O         1.730387         0.711027         1.678693
 H         3.742668         3.743089        -2.336047
 H         4.182905         1.954285        -2.315110
 H         3.421675         2.941542        -3.844607
 H         2.862594         2.703607        -0.304565
 H         1.367894         3.679707        -0.631079
 H         0.121264         2.227604         0.531315
 H        -0.091628        -0.038316        -1.284276
 H        -0.855215         1.495851        -1.610951
 H         1.303420         0.702067        -3.545863
 H         2.526020         0.284285        -0.087614
