19
Iteration:  4420charge 0 multiplicity 1
 C         3.188017         3.408257        -3.080134
 C         2.089733         2.671223        -2.359651
 C         1.826303         2.954481        -0.837855
 C         1.007408         1.756895        -0.222343
 C         0.966986         0.715718        -1.303854
 C         1.396642         1.350131        -2.581416
 O         0.773942         2.640221        -2.982026
 C         1.529533         1.089134         1.069714
 O         1.067332         0.051431         1.481647
 H         3.101724         4.589458        -3.387608
 H         4.207394         3.290658        -2.426916
 H         3.595324         2.935291        -3.949374
 H         2.774321         2.787942        -0.368695
 H         1.374702         3.868037        -0.586967
 H        -0.026155         2.056131         0.041580
 H         1.684902        -0.022977        -1.111006
 H         0.002817         0.201062        -1.396048
 H         1.844927         0.911454        -3.477805
 H         2.478880         1.546134         1.471249
