19
Iteration:   863charge 0 multiplicity 1
 C         3.404368         2.205888        -3.030592
 C         2.145945         2.416857        -2.233352
 C         2.182249         2.648593        -0.645595
 C         0.904434         2.026101        -0.063455
 C         0.007761         1.565134        -1.327650
 C         0.866935         1.675599        -2.553804
 O         1.077498         3.063206        -2.899360
 C         1.419133         0.702307         0.429456
 O         1.748312         0.344404         1.543441
 H         3.985215         3.125113        -3.133553
 H         4.032651         1.588290        -2.479401
 H         3.135505         1.500096        -3.916306
 H         3.234373         2.386424        -0.454925
 H         2.109159         3.748758        -0.420471
 H         0.457581         2.707517         0.725423
 H        -0.552656         0.696613        -1.142430
 H        -0.747125         2.322942        -1.500796
 H         0.784344         1.033741        -3.436320
 H         1.767349         0.094190        -0.421613
