19
Iteration:  1852charge 0 multiplicity 1
 C         3.117782         3.145251        -3.400393
 C         2.201086         2.471393        -2.355248
 C         2.632466         2.113926        -0.936225
 C         1.262864         1.534519        -0.410467
 C         0.513210         0.923705        -1.473662
 C         1.008282         1.628353        -2.701473
 O         0.830035         3.047862        -2.420474
 C         1.390277         0.643813         0.795137
 O         0.947905         0.979541         1.959646
 H         3.274490         4.036541        -2.869781
 H         4.104955         2.593723        -3.496672
 H         2.697948         3.205130        -4.450291
 H         3.504909         1.540302        -1.073031
 H         3.005369         2.887071        -0.224276
 H         0.670926         2.408331         0.010124
 H         0.817308        -0.193530        -1.421579
 H        -0.534358         1.112352        -1.312044
 H         0.914214         1.216843        -3.682203
 H         2.142443        -0.152473         0.730585
