19
Iteration:   836
 C         3.399784         2.186875        -2.988654
 C         2.165924         2.378149        -2.244447
 C         2.162816         2.595346        -0.700734
 C         0.916475         1.940603        -0.160315
 C        -0.049238         1.569459        -1.331747
 C         0.850084         1.816468        -2.532841
 O         1.033757         3.148966        -2.966565
 C         1.504340         0.547774         0.460939
 O         1.746656         0.473575         1.632369
 H         3.924900         3.129234        -2.968529
 H         4.044746         1.582574        -2.246453
 H         3.330863         1.673756        -3.853192
 H         3.123606         2.062282        -0.572600
 H         2.419917         3.551635        -0.302605
 H         0.615677         2.601076         0.607606
 H        -0.468690         0.501787        -1.242224
 H        -0.942038         2.241001        -1.457076
 H         0.727553         1.156016        -3.409553
 H         1.919749        -0.254954        -0.213003
