19
Iteration:  3273
 C         2.915113         3.255533        -3.478144
 C         2.143479         2.542504        -2.358878
 C         2.585345         2.420723        -0.985476
 C         1.425767         1.729684        -0.275935
 C         0.915709         0.680583        -1.387816
 C         1.163148         1.459910        -2.601025
 O         0.768577         2.900847        -2.430270
 C         1.535945         0.845486         1.016372
 O         0.533050         0.724503         1.638224
 H         3.312185         4.233396        -3.170976
 H         3.636899         2.487571        -3.904837
 H         2.350822         3.375003        -4.391048
 H         3.476859         1.872874        -0.839464
 H         2.946568         3.363124        -0.530694
 H         0.784260         2.484494        -0.075667
 H         1.677607        -0.121801        -1.216954
 H        -0.071576         0.365728        -1.265698
 H         0.936589         1.005617        -3.515004
 H         2.453082         0.328397         1.476100
