19
Iteration:  3579charge 0 multiplicity 1
 C         3.391603         3.014382        -2.748733
 C         2.052811         2.515149        -2.165814
 C         1.736495         2.758661        -0.729342
 C         0.735283         1.632996        -0.274289
 C         0.308858         0.897408        -1.620503
 C         1.260432         1.390252        -2.699512
 O         0.910926         2.781557        -3.093774
 C         1.453398         0.657540         0.720129
 O         1.958071         0.890550         1.779707
 H         3.644388         4.045855        -2.387778
 H         4.297127         2.422490        -2.293341
 H         3.365255         2.924050        -3.867011
 H         2.523503         2.973322        -0.028499
 H         1.303090         3.854208        -0.724720
 H        -0.211278         1.936083         0.312008
 H         0.427341        -0.284640        -1.577902
 H        -0.690317         1.247135        -1.897285
 H         1.456166         0.820588        -3.668212
 H         1.309632        -0.476167         0.397057
