19
Iteration:  4537charge 0 multiplicity 1
 C         2.951002         3.619777        -3.058485
 C         2.121402         2.701316        -2.281750
 C         2.296390         2.548322        -0.715498
 C         1.135859         1.655367        -0.390146
 C         1.016586         0.588137        -1.460858
 C         1.474569         1.351371        -2.665174
 O         0.727613         2.554470        -2.817443
 C         0.960965         1.319019         1.059367
 O         1.256205         0.258227         1.520438
 H         3.095899         4.467538        -2.478465
 H         3.832467         3.118118        -3.296175
 H         2.424727         3.829128        -4.064275
 H         3.209583         1.917262        -0.739958
 H         2.310951         3.586243        -0.151484
 H         0.385329         2.445492        -0.607554
 H         1.637372        -0.372600        -1.117876
 H         0.009736         0.192155        -1.816241
 H         1.791389         0.709576        -3.481844
 H         0.648898         2.285630         1.681574
