19
Iteration:  3986charge 0 multiplicity 1
 C         3.339741         3.116923        -2.943392
 C         2.051723         2.761530        -2.288407
 C         1.619174         3.036920        -0.830563
 C         0.930279         1.777169        -0.197724
 C         0.867849         0.721266        -1.337859
 C         1.462284         1.426556        -2.580499
 O         0.742542         2.619919        -3.054590
 C         1.339673         1.170585         1.062608
 O         1.508694         0.013794         1.373362
 H         3.399090         4.167857        -3.231242
 H         4.102739         2.788113        -2.266677
 H         3.473684         2.655776        -3.841854
 H         2.634191         3.416068        -0.370143
 H         0.987997         4.012958        -0.803436
 H        -0.149481         1.975731         0.131389
 H         1.588458        -0.013283        -1.125707
 H        -0.082545         0.318725        -1.576351
 H         1.983165         0.984162        -3.468795
 H         1.287790         2.000935         1.852222
