19
Iteration:  1031charge 0 multiplicity 1
 C         3.408710         2.322393        -3.137849
 C         2.126352         2.487780        -2.336382
 C         2.281690         2.821089        -0.726478
 C         1.173944         2.027294        -0.030281
 C         0.103626         1.640451        -1.177354
 C         0.896415         1.639027        -2.473398
 O         0.951437         2.942348        -3.043960
 C         1.640590         0.683791         0.542335
 O         1.269164         0.156478         1.599796
 H         3.815773         3.311902        -3.196649
 H         4.109643         1.620651        -2.546557
 H         3.230086         1.947331        -4.079373
 H         3.203344         2.271088        -0.759637
 H         2.418741         3.877681        -0.428653
 H         0.474217         2.441138         0.662916
 H        -0.274071         0.659987        -0.926376
 H        -0.797116         2.213642        -1.145084
 H         0.785594         0.880098        -3.283851
 H         2.499624         0.337458        -0.096251
