19
Iteration:   911
 C         3.435949         2.203222        -3.000577
 C         2.147857         2.425644        -2.306488
 C         2.059415         2.764265        -0.713761
 C         1.013337         1.923588        -0.096303
 C         0.044124         1.695777        -1.161427
 C         0.840853         1.665772        -2.498896
 O         1.088077         3.071612        -3.052190
 C         1.587779         0.624539         0.409563
 O         1.596845         0.294277         1.581394
 H         4.080291         3.048000        -2.764381
 H         4.001573         1.276527        -2.470763
 H         3.288975         1.940969        -3.965496
 H         2.967614         2.736561        -0.135323
 H         1.768158         3.829808        -0.838474
 H         0.667224         2.248683         0.847957
 H        -0.552365         0.754389        -0.974900
 H        -0.712841         2.497010        -1.087314
 H         0.724257         0.910269        -3.318069
 H         1.844646        -0.119010        -0.330622
