19
Iteration:  2920
 C         3.473843         2.641008        -2.747895
 C         2.109951         2.541812        -2.229656
 C         1.654579         2.966108        -0.794246
 C         0.787978         1.794664        -0.172493
 C         0.201675         1.022051        -1.444914
 C         1.017694         1.560651        -2.634925
 O         0.993197         2.881403        -3.146422
 C         1.696164         0.648138         0.574890
 O         1.815678         0.583650         1.770004
 H         3.876418         3.628536        -2.793584
 H         4.197437         2.136652        -2.118617
 H         3.662331         2.090549        -3.678408
 H         2.580204         3.189648        -0.209154
 H         1.115129         4.010447        -0.719429
 H         0.045762         2.089716         0.497711
 H         0.536412        -0.022366        -1.369667
 H        -0.853895         1.197572        -1.592686
 H         1.078414         0.839461        -3.409830
 H         2.105192        -0.081311        -0.172404
