19
Iteration:  3618charge 0 multiplicity 1
 C         3.384478         3.118204        -2.717767
 C         2.141312         2.479188        -2.158239
 C         1.748151         2.692583        -0.602972
 C         0.681039         1.660665        -0.279368
 C         0.310960         0.894407        -1.630220
 C         1.289643         1.338584        -2.605967
 O         0.916431         2.715187        -3.018676
 C         1.295389         0.674078         0.686195
 O         2.060499         0.996182         1.550385
 H         3.458078         4.162363        -2.533818
 H         4.188996         2.506766        -2.478496
 H         3.368138         2.916169        -3.838543
 H         2.663258         2.480844        -0.028292
 H         1.364837         3.680248        -0.516855
 H        -0.204386         2.070584         0.167362
 H         0.150710        -0.128992        -1.557797
 H        -0.683767         1.099352        -2.099887
 H         1.561044         0.642921        -3.431694
 H         0.892243        -0.487135         0.531272
