19
Iteration:   280charge 0 multiplicity 1
 C         3.314393         2.040138        -3.229024
 C         2.161830         2.274735        -2.327571
 C         2.364057         2.374664        -0.808706
 C         0.970030         1.836442        -0.181935
 C         0.026734         1.697572        -1.295605
 C         0.769987         2.065619        -2.586539
 O         1.184854         3.401114        -2.701119
 C         1.115928         0.567901         0.694123
 O         1.887503         0.355047         1.605122
 H         4.115181         2.895587        -3.137620
 H         3.810942         1.043189        -2.950709
 H         2.969985         1.925654        -4.239331
 H         3.313337         1.729048        -0.612675
 H         2.475800         3.444644        -0.604108
 H         0.682948         2.517529         0.647555
 H        -0.427256         0.706358        -1.325908
 H        -0.751065         2.462776        -1.191532
 H         0.393769         1.582338        -3.618017
 H         0.186164        -0.067401         0.423256
