19
Iteration:  4936charge 0 multiplicity 1
 C         3.467737         2.796823        -2.245843
 C         1.951310         2.539512        -2.056245
 C         1.190920         3.062879        -0.731210
 C         0.549242         1.834873        -0.194829
 C         0.225713         0.933633        -1.423537
 C         1.285048         1.261324        -2.477404
 O         1.089453         2.527346        -3.187051
 C         1.640253         1.360295         0.853480
 O         2.280286         0.328362         0.740409
 H         3.572381         3.829147        -2.666003
 H         4.154504         2.541767        -1.380011
 H         3.756979         2.083760        -3.126310
 H         1.938994         3.599918        -0.141260
 H         0.539023         3.937102        -1.231700
 H        -0.224653         2.063723         0.535468
 H         0.338683        -0.215684        -1.324264
 H        -0.739119         1.017480        -1.926701
 H         1.904657         0.446408        -2.942599
 H         1.726106         2.120349         1.640009
