19
Iteration:  2405
 C         3.413253         2.730004        -3.158743
 C         2.120465         2.542693        -2.352542
 C         2.213772         2.752845        -0.814140
 C         1.169745         1.766953        -0.202694
 C         0.347021         1.111786        -1.288200
 C         0.967067         1.613715        -2.613179
 O         0.802418         2.952806        -2.904639
 C         1.659607         0.626826         0.674078
 O         1.194973         0.493532         1.809540
 H         3.592707         3.906952        -3.123134
 H         4.391806         2.531388        -2.631100
 H         3.443728         2.365280        -4.248116
 H         3.176650         2.768391        -0.308251
 H         1.726948         3.661440        -0.627079
 H         0.449925         2.351012         0.442252
 H         0.583874         0.021440        -1.251713
 H        -0.822413         1.131438        -1.341111
 H         0.936784         1.047376        -3.563679
 H         2.435490        -0.055909         0.268857
