19
Iteration:   433charge 0 multiplicity 1
 C         3.228249         2.141292        -3.390584
 C         2.165838         2.328516        -2.404763
 C         2.519910         2.395625        -0.920009
 C         1.324514         1.852156        -0.131236
 C         0.126317         1.621702        -1.169298
 C         0.724687         1.963716        -2.537373
 O         1.068644         3.301090        -2.575655
 C         1.682298         0.646087         0.655856
 O         1.025736         0.377163         1.623641
 H         4.084458         2.903145        -3.414651
 H         3.659272         1.152853        -3.247844
 H         2.762744         2.258120        -4.413824
 H         3.326117         1.713020        -0.865569
 H         3.111351         3.137362        -0.461560
 H         0.890279         2.650661         0.461704
 H        -0.347492         0.638892        -1.041894
 H        -0.645036         2.372399        -0.875240
 H         0.262958         1.417932        -3.493351
 H         2.690708         0.135443         0.389832
