19
Iteration:  2314charge 0 multiplicity 1
 C         3.452695         2.630335        -2.937210
 C         2.092415         2.547767        -2.285607
 C         2.020503         2.919090        -0.794265
 C         1.009915         1.885899        -0.205931
 C         0.243427         1.141459        -1.320372
 C         0.989745         1.513040        -2.604669
 O         0.887628         2.929570        -2.924466
 C         1.738998         0.659546         0.502948
 O         1.425735         0.446973         1.718537
 H         4.076139         3.499298        -2.670045
 H         4.063371         1.720665        -2.562458
 H         3.347535         2.480425        -4.068003
 H         3.002013         2.854946        -0.385273
 H         1.654924         3.932979        -0.750679
 H         0.372874         2.317925         0.529719
 H         0.350840         0.039956        -1.156971
 H        -0.761124         1.440865        -1.273632
 H         0.758827         0.930374        -3.489927
 H         2.124536        -0.195711        -0.111090
