19
Iteration:  4298
 C         3.277794         3.161792        -3.040894
 C         2.038045         2.755997        -2.282310
 C         1.878391         3.042129        -0.766994
 C         0.936463         1.761633        -0.285755
 C         1.083560         0.649689        -1.434271
 C         1.418057         1.405319        -2.655061
 O         0.664085         2.615599        -2.771638
 C         1.261168         1.260833         1.056912
 O         1.292226         0.043397         1.346012
 H         3.678186         4.220648        -3.039968
 H         4.190481         2.749430        -2.588131
 H         3.254929         2.834334        -4.086081
 H         2.875593         2.962455        -0.405552
 H         1.516430         3.983403        -0.529488
 H        -0.107864         2.132949        -0.302208
 H         1.832176         0.032598        -1.109279
 H         0.328705        -0.126765        -1.556793
 H         1.502444         0.694934        -3.488219
 H         1.466134         2.106643         1.833764
