19
Iteration:  4325charge 0 multiplicity 1
 C         3.199800         3.256776        -2.949710
 C         2.033001         2.652492        -2.281969
 C         1.794651         2.895339        -0.803037
 C         1.071360         1.720121        -0.224976
 C         0.968251         0.714497        -1.411910
 C         1.424832         1.379779        -2.673709
 O         0.740631         2.733635        -3.019949
 C         1.395731         1.216000         1.101694
 O         1.238240         0.071139         1.450857
 H         3.445572         4.251056        -2.708979
 H         4.150387         2.780740        -2.723773
 H         3.081972         3.164588        -4.043160
 H         2.875104         2.973627        -0.335499
 H         1.202959         3.920810        -0.773335
 H         0.041565         2.087932        -0.148634
 H         1.771692        -0.147648        -1.180894
 H         0.093583         0.044760        -1.387900
 H         1.696270         0.578489        -3.367303
 H         1.889730         2.033957         1.711569
