19
Iteration:  4317charge 0 multiplicity 1
 C         3.243567         3.207443        -2.980590
 C         2.013333         2.688853        -2.298622
 C         1.825820         2.919571        -0.822453
 C         1.047179         1.722004        -0.302930
 C         1.034225         0.636898        -1.340362
 C         1.393762         1.417900        -2.601092
 O         0.706079         2.716000        -2.959535
 C         1.369159         1.248398         1.078085
 O         1.242739         0.053780         1.411642
 H         3.547097         4.293217        -2.777552
 H         4.164197         2.708376        -2.592663
 H         3.223809         3.106343        -4.212016
 H         2.667653         3.094738        -0.176866
 H         1.256774         3.949331        -0.694946
 H         0.001099         2.129489        -0.189013
 H         1.840133        -0.191114        -1.267275
 H         0.048485         0.087795        -1.320113
 H         1.781306         0.979944        -3.540550
 H         1.725606         2.013423         1.766705
