19
Iteration:  4305charge 0 multiplicity 1
 C         3.310611         3.182704        -3.019924
 C         2.028913         2.759947        -2.296087
 C         1.877906         3.018750        -0.783144
 C         0.960500         1.750850        -0.305388
 C         1.071961         0.599827        -1.391812
 C         1.373782         1.436951        -2.627670
 O         0.689749         2.646721        -2.840528
 C         1.326856         1.239444         1.065090
 O         1.265863         0.066578         1.368427
 H         3.372547         4.282739        -2.861707
 H         4.097571         2.545622        -2.564803
 H         3.243658         2.876851        -4.239273
 H         2.944721         3.019201        -0.443063
 H         1.174932         3.986437        -0.553194
 H        -0.137634         1.987865        -0.248012
 H         1.955362        -0.133041        -1.002084
 H         0.125590        -0.009114        -1.533192
 H         1.590218         0.792756        -3.522853
 H         1.501527         1.962243         1.844825
