19
Iteration:  3451
 C         3.400183         3.082374        -2.893592
 C         2.071207         2.564247        -2.345274
 C         2.035287         2.695607        -0.802695
 C         0.927270         1.633241        -0.297875
 C         0.439813         0.845958        -1.515359
 C         1.197619         1.404614        -2.698806
 O         0.772105         2.802363        -2.997873
 C         1.531990         0.706384         0.724087
 O         1.513432         0.842561         1.948324
 H         3.434834         4.164779        -2.523704
 H         4.362447         2.529785        -2.643068
 H         3.114120         3.236646        -3.999851
 H         2.969192         2.183001        -0.270080
 H         1.587974         3.609824        -0.374385
 H         0.101820         2.129600         0.129427
 H         0.502249        -0.253593        -1.519292
 H        -0.648381         0.980749        -1.845448
 H         1.472870         0.797148        -3.624354
 H         1.871134        -0.270438         0.447559
