19
Iteration:  2183charge 0 multiplicity 1
 C         3.477340         2.632764        -3.021584
 C         2.122594         2.533388        -2.270031
 C         1.990288         2.883699        -0.715607
 C         0.853525         1.861616        -0.112031
 C         0.108647         1.274341        -1.379492
 C         1.009266         1.524183        -2.545361
 O         0.973616         2.907597        -3.094706
 C         1.684460         0.745503         0.584715
 O         1.578538         0.326744         1.753195
 H         3.783788         3.696013        -3.093443
 H         4.225849         1.844493        -2.697695
 H         3.382412         2.412674        -4.095014
 H         2.933577         2.598292        -0.238902
 H         1.806342         3.899318        -0.442945
 H         0.247938         2.176046         0.719091
 H        -0.172477         0.194354        -1.234618
 H        -0.838376         1.783825        -1.479744
 H         1.103746         0.707325        -3.338038
 H         2.320346         0.079548        -0.097897
