19
Iteration:  2691charge 0 multiplicity 1
 C         3.287119         2.938059        -3.284268
 C         2.125959         2.628226        -2.280855
 C         2.259073         2.622877        -0.799205
 C         1.129609         1.597233        -0.300073
 C         0.474197         0.850520        -1.515440
 C         1.120117         1.530245        -2.663659
 O         0.814282         2.991869        -2.823452
 C         1.478683         0.651327         0.819791
 O         1.192142         0.756289         1.991585
 H         3.962030         3.764982        -2.886533
 H         3.909679         2.024578        -3.334388
 H         2.812597         3.228343        -4.237920
 H         3.271432         2.240821        -0.474629
 H         1.907435         3.532574        -0.484376
 H         0.413578         2.218666         0.161187
 H         0.768263        -0.222785        -1.587425
 H        -0.602021         0.991861        -1.570569
 H         1.210517         1.095838        -3.588217
 H         2.311319        -0.048345         0.638348
