19
Iteration:   664charge 0 multiplicity 1
 C         3.189334         2.574122        -3.496702
 C         2.172504         2.473909        -2.401281
 C         2.600453         1.966707        -1.044766
 C         1.204467         1.721835        -0.228985
 C         0.408597         1.116809        -1.499886
 C         0.844715         1.883236        -2.669849
 O         1.005008         3.365843        -2.397086
 C         1.283205         0.672199         0.840588
 O         1.159426         0.825560         2.041244
 H         3.735318         3.472554        -3.632882
 H         3.801562         1.847279        -3.179514
 H         2.798610         2.462169        -4.557552
 H         3.137984         1.027051        -1.248330
 H         3.282537         2.442488        -0.422065
 H         0.726825         2.639370         0.050104
 H         0.468893         0.078015        -1.747684
 H        -0.557467         1.490498        -1.303418
 H         0.568616         1.637101        -3.663195
 H         1.537168        -0.424121         0.469925
