19
Iteration:  4303charge 0 multiplicity 1
 C         3.301684         3.174981        -3.032096
 C         2.034430         2.764852        -2.293581
 C         1.875513         3.033039        -0.775838
 C         0.948658         1.755164        -0.293724
 C         1.073388         0.614567        -1.413423
 C         1.384657         1.430194        -2.642114
 O         0.682473         2.634546        -2.814180
 C         1.309093         1.253075         1.060751
 O         1.273184         0.055069         1.361781
 H         3.470241         4.229336        -2.910194
 H         4.141215         2.613663        -2.569032
 H         3.250752         2.876810        -4.128627
 H         3.014008         2.986295        -0.459389
 H         1.233564         4.011255        -0.535042
 H        -0.120554         2.007194        -0.274753
 H         1.936542        -0.120659        -0.987856
 H         0.199594        -0.076995        -1.554436
 H         1.539741         0.717095        -3.472790
 H         1.477984         1.997877         1.826520
