19
Iteration:  1186
 C         3.237828         2.700010        -3.390743
 C         2.191643         2.459576        -2.361164
 C         2.495600         2.251710        -0.830398
 C         1.164884         1.643797        -0.259279
 C         0.255811         1.119625        -1.443371
 C         0.944666         1.776315        -2.628458
 O         0.933877         3.229358        -2.662909
 C         1.510609         0.634382         0.750364
 O         1.114774         0.736021         1.953970
 H         4.004107         3.450767        -3.129248
 H         3.863615         1.666686        -3.367854
 H         2.907364         2.893724        -4.430448
 H         3.441061         1.611431        -0.832792
 H         2.838702         3.181916        -0.266947
 H         0.761910         2.519468         0.281373
 H         0.196999         0.036449        -1.589411
 H        -0.724680         1.630310        -1.387846
 H         0.562652         1.304987        -3.525982
 H         2.321206        -0.139927         0.593758
