19
Iteration:  2167
 C         3.363818         2.649513        -2.998716
 C         2.159383         2.409845        -2.219114
 C         1.969102         2.750707        -0.783182
 C         0.944487         1.810982        -0.149544
 C         0.082416         1.309743        -1.328943
 C         1.057036         1.562669        -2.629792
 O         0.998429         2.932434        -3.034334
 C         1.693444         0.703654         0.592458
 O         1.554015         0.383881         1.746835
 H         3.813006         3.622807        -2.732185
 H         4.234839         2.029160        -2.625708
 H         3.124257         2.579392        -4.086404
 H         2.878102         2.962195        -0.178729
 H         1.494139         3.805260        -0.831684
 H         0.271703         2.507028         0.479774
 H        -0.308221         0.304193        -1.286590
 H        -0.856664         1.929416        -1.520594
 H         1.189251         0.868130        -3.432417
 H         2.667324         0.562023         0.042451
