19
Iteration:  2710charge 0 multiplicity 1
 C         3.349805         2.875937        -3.117087
 C         2.113740         2.572404        -2.320143
 C         2.158804         2.609685        -0.738079
 C         0.952162         1.723046        -0.274921
 C         0.479774         0.898344        -1.478741
 C         1.125452         1.520467        -2.717284
 O         0.767727         2.951748        -2.809046
 C         1.618872         0.718468         0.722365
 O         1.295197         0.741540         1.874865
 H         3.837569         3.751908        -2.674201
 H         4.079885         2.053527        -2.985313
 H         3.026110         2.945861        -4.112545
 H         3.088757         2.051610        -0.627179
 H         2.283920         3.753939        -0.407803
 H         0.149826         2.340805         0.239474
 H         0.823036        -0.111549        -1.417496
 H        -0.661100         1.004923        -1.571574
 H         1.208347         0.930007        -3.661684
 H         2.139034        -0.213530         0.288415
