19
Iteration:  2946charge 0 multiplicity 1
 C         3.443752         2.687393        -2.679651
 C         2.076852         2.473162        -2.204293
 C         1.765602         2.865794        -0.783000
 C         0.837201         1.787260        -0.174146
 C         0.177469         1.072689        -1.476031
 C         1.117087         1.473927        -2.636909
 O         0.874133         2.845525        -3.047717
 C         1.700508         0.775857         0.476272
 O         1.764532         0.618385         1.682404
 H         3.764681         3.726688        -2.841669
 H         4.139924         2.367482        -1.881894
 H         3.826564         2.049629        -3.530097
 H         2.852296         2.997157        -0.288695
 H         1.355952         3.853237        -0.683609
 H         0.091925         2.155984         0.572559
 H         0.144226        -0.026502        -1.355320
 H        -0.731525         1.636450        -1.639247
 H         1.329735         0.664708        -3.473266
 H         2.167240         0.129185        -0.281248
