19
Iteration:  2925
 C         3.501054         2.634257        -2.723361
 C         2.106686         2.570813        -2.237306
 C         1.685580         2.959590        -0.774352
 C         0.829927         1.795715        -0.216878
 C         0.192748         1.048913        -1.421428
 C         0.974255         1.515552        -2.619731
 O         0.971956         2.871817        -3.140791
 C         1.666705         0.654108         0.556370
 O         1.819386         0.584770         1.763632
 H         3.886856         3.692142        -2.883774
 H         4.258896         2.224048        -2.006665
 H         3.690885         2.146234        -3.728228
 H         2.595522         3.170999        -0.067724
 H         1.091275         3.818875        -0.732627
 H        -0.084276         2.148529         0.405750
 H         0.571647         0.013739        -1.304571
 H        -0.898989         1.153398        -1.630529
 H         1.167523         0.784531        -3.536748
 H         2.162806         0.006995        -0.218788
