19
Iteration:  4914
 C         3.473026         2.807496        -2.326133
 C         2.045030         2.526909        -1.959511
 C         1.314525         3.101285        -0.804544
 C         0.505645         1.835146        -0.261080
 C         0.233420         0.878953        -1.331837
 C         1.322313         1.286558        -2.397291
 O         1.036598         2.502001        -3.076758
 C         1.492041         1.285978         0.754412
 O         2.301758         0.376037         0.655181
 H         3.469358         3.890346        -2.655129
 H         4.019517         2.825898        -1.313186
 H         4.158384         2.223431        -3.020354
 H         1.974793         3.656620        -0.101716
 H         0.585174         3.854702        -1.430969
 H        -0.304735         2.253547         0.335724
 H         0.304117        -0.253925        -0.976388
 H        -0.785544         0.962118        -1.767178
 H         1.644817         0.442613        -3.076923
 H         1.496835         2.012706         1.645425
