19
Iteration:  2324charge 0 multiplicity 1
 C         3.392555         2.649986        -2.958403
 C         2.094539         2.484592        -2.250966
 C         2.085967         2.853189        -0.859166
 C         1.058561         1.856016        -0.231680
 C         0.244220         1.165032        -1.352854
 C         0.974328         1.513992        -2.514910
 O         0.926767         2.946042        -2.877474
 C         1.612130         0.711037         0.548302
 O         1.446228         0.451704         1.665513
 H         3.718550         3.646245        -2.731079
 H         3.910774         1.716565        -2.518484
 H         3.374043         2.602087        -4.081433
 H         3.013658         2.987078        -0.337654
 H         1.543734         3.860382        -0.802448
 H         0.390217         2.217136         0.545655
 H         0.374598         0.035346        -1.247596
 H        -0.760778         1.370948        -1.491018
 H         1.110798         0.868219        -3.407276
 H         2.385380         0.135328        -0.074279
