19
Iteration:  4346charge 0 multiplicity 1
 C         3.167631         3.377234        -2.976986
 C         2.067407         2.687043        -2.301848
 C         1.872401         2.913106        -0.790941
 C         0.932600         1.769409        -0.269288
 C         0.839532         0.674164        -1.438570
 C         1.399794         1.400874        -2.689971
 O         0.834017         2.590241        -3.080952
 C         1.497435         1.131360         1.114716
 O         1.241411         0.063938         1.586323
 H         3.316853         4.335753        -2.597869
 H         4.175353         3.114604        -2.730191
 H         3.153259         3.464479        -3.999771
 H         2.828356         2.753039        -0.151384
 H         1.514030         3.965207        -0.658282
 H        -0.043688         2.215279        -0.083458
 H         1.282146        -0.325313        -1.233671
 H        -0.180430         0.297411        -1.510047
 H         1.872641         0.864382        -3.541698
 H         2.118241         1.985604         1.668577
