19
Iteration:   757charge 0 multiplicity 1
 C         3.336273         2.258249        -3.113055
 C         2.081651         2.517939        -2.330945
 C         2.280107         2.402800        -0.795511
 C         0.960820         1.897584        -0.172390
 C         0.099990         1.392858        -1.394883
 C         0.936630         1.711551        -2.612031
 O         1.042609         3.279348        -2.765554
 C         1.374723         0.642879         0.601504
 O         1.641460         0.556501         1.756237
 H         4.138871         2.947360        -2.955668
 H         3.557583         1.136689        -3.103127
 H         3.105642         2.687861        -3.992269
 H         3.109663         1.668350        -0.719422
 H         2.685692         3.380941        -0.382550
 H         0.543337         2.732496         0.414567
 H         0.060242         0.227819        -1.432282
 H        -0.912129         1.867485        -1.325290
 H         0.997399         0.967952        -3.464085
 H         1.509253        -0.246393        -0.047128
