19
Iteration:   443charge 0 multiplicity 1
 C         3.218403         2.199829        -3.454559
 C         2.132950         2.308084        -2.389323
 C         2.668337         2.328381        -0.947078
 C         1.312886         1.890177        -0.196861
 C         0.109031         1.594870        -1.117223
 C         0.717799         1.931862        -2.479720
 O         1.083932         3.322934        -2.576011
 C         1.664303         0.693433         0.669277
 O         0.972683         0.366799         1.625671
 H         3.896382         3.073147        -3.194318
 H         3.783100         1.277682        -3.261620
 H         2.912679         2.139884        -4.505289
 H         3.350252         1.532945        -0.728003
 H         2.885894         3.358960        -0.767580
 H         1.037483         2.561908         0.641052
 H        -0.236536         0.493578        -1.155864
 H        -0.782601         2.200449        -0.778835
 H         0.341122         1.443884        -3.525329
 H         2.588662         0.144476         0.502270
