19
Iteration:  1272
 C         3.211699         2.944503        -3.346333
 C         2.168706         2.448106        -2.312107
 C         2.551127         1.785108        -0.950756
 C         1.217955         1.342304        -0.458399
 C         0.403460         0.903248        -1.714234
 C         0.886279         1.885022        -2.754432
 O         0.916488         3.246264        -2.212189
 C         1.289285         0.624627         0.941140
 O         1.209236         1.288722         1.895412
 H         3.688862         3.901354        -3.151431
 H         4.062750         2.120673        -3.243731
 H         2.655831         2.911058        -4.284243
 H         3.246056         1.011522        -1.127472
 H         3.081758         2.547474        -0.298897
 H         0.650532         2.279133        -0.308056
 H         0.568907        -0.192216        -1.919705
 H        -0.613624         1.115546        -1.424657
 H         0.837779         1.696035        -3.853231
 H         1.634947        -0.501129         0.879707
