19
Iteration:  3816charge 0 multiplicity 1
 C         3.230139         3.249244        -2.985855
 C         2.081992         2.656915        -2.210837
 C         2.092220         2.616599        -0.724224
 C         0.836928         1.608543        -0.370678
 C         0.956091         0.595568        -1.476780
 C         1.358611         1.410974        -2.736930
 O         0.694118         2.785477        -2.826310
 C         0.836298         1.165131         1.037932
 O         1.751057         0.474672         1.452720
 H         3.067570         4.320180        -3.175653
 H         4.160399         3.266222        -2.460108
 H         3.247524         2.652613        -3.933971
 H         3.036572         2.366437        -0.197119
 H         1.993194         3.600877        -0.275059
 H        -0.009543         2.191088        -0.477663
 H         1.734686        -0.180556        -1.326216
 H        -0.059211         0.073385        -1.550651
 H         1.546903         0.933628        -3.721955
 H         0.031525         1.575815         1.723502
