19
Iteration:  3830
 C         3.170970         3.197321        -3.026297
 C         2.069178         2.583861        -2.251887
 C         2.018880         2.630799        -0.674322
 C         0.906758         1.713672        -0.432543
 C         1.027626         0.575178        -1.563203
 C         1.310511         1.484375        -2.672504
 O         0.746509         2.744243        -2.667345
 C         0.878232         1.195520         1.001783
 O         1.699869         0.465540         1.450817
 H         2.990493         4.249214        -3.255648
 H         4.121004         3.110493        -2.431081
 H         3.454227         2.674299        -3.830237
 H         3.027486         2.129290        -0.407776
 H         1.710683         3.687238        -0.300436
 H        -0.042024         2.244593        -0.762235
 H         1.881477         0.010158        -1.306675
 H         0.261134        -0.096494        -1.742878
 H         1.452227         1.085185        -3.628560
 H        -0.005540         1.578708         1.584022
