19
Iteration:  4605charge 0 multiplicity 1
 C         3.243581         3.253281        -3.023281
 C         1.962498         2.724216        -2.291122
 C         1.926025         2.812338        -0.752486
 C         0.987199         1.670876        -0.347586
 C         1.069090         0.667665        -1.503198
 C         1.472199         1.432586        -2.690939
 O         0.659247         2.721464        -2.893723
 C         1.124660         1.238899         1.079979
 O         1.435046         0.129435         1.547516
 H         3.242158         4.302004        -3.079872
 H         4.070917         2.933060        -2.353189
 H         3.427682         2.745744        -3.970386
 H         2.974879         2.655364        -0.300355
 H         1.421467         3.842426        -0.317205
 H        -0.079866         2.025856        -0.367632
 H         1.878875        -0.193002        -1.334008
 H         0.089179         0.042315        -1.506939
 H         1.652787         0.992216        -3.716114
 H         0.958529         2.028943         1.846133
