19
Iteration:    41charge 0 multiplicity 1
 C         3.301967         2.730867        -3.549501
 C         2.262517         2.546216        -2.413343
 C         2.638544         2.419709        -0.925911
 C         1.309718         1.762910        -0.180131
 C         0.391463         1.122094        -1.302392
 C         0.939239         1.781161        -2.532287
 O         0.967676         3.141333        -2.579395
 C         1.485414         0.732621         0.934835
 O         0.630777         0.419474         1.709358
 H         4.154867         3.553603        -3.470737
 H         3.850453         1.767931        -3.605570
 H         2.736407         3.007730        -4.379242
 H         3.460520         1.684347        -0.847340
 H         2.870960         3.371714        -0.418311
 H         0.729276         2.536216         0.361510
 H         0.608401         0.008659        -1.365536
 H        -0.723451         1.178549        -1.138041
 H         0.705384         1.139136        -3.543352
 H         2.636730         0.250679         0.992887
