19
Iteration:   625
 C         3.157027         2.770200        -3.551283
 C         2.166575         2.297539        -2.508078
 C         2.652926         1.890061        -1.036609
 C         1.337000         1.552825        -0.287630
 C         0.419356         1.100631        -1.413680
 C         0.736832         1.925461        -2.599872
 O         1.106726         3.270525        -2.265653
 C         1.379277         0.652861         0.845934
 O         0.927395         1.028780         1.917409
 H         3.829405         3.533234        -3.037817
 H         3.884131         1.914286        -4.053409
 H         2.611948         3.257157        -4.377504
 H         3.328320         0.964680        -1.102537
 H         3.422983         2.744381        -0.754159
 H         0.837751         2.452646         0.187537
 H         0.510709        -0.044503        -1.566987
 H        -0.669619         1.332250        -1.179608
 H         0.183920         1.709903        -3.555778
 H         1.892638        -0.291912         0.684886
