19
Iteration:  2229charge 0 multiplicity 1
 C         3.492588         2.563209        -2.919204
 C         2.075651         2.484372        -2.221203
 C         1.964889         2.909758        -0.797439
 C         0.973952         1.873756        -0.175734
 C         0.148955         1.194551        -1.366173
 C         0.970923         1.498225        -2.596034
 O         0.936798         2.953723        -2.887144
 C         1.712043         0.695228         0.518434
 O         1.531811         0.446776         1.634279
 H         3.681250         3.599522        -3.192177
 H         4.202995         2.082627        -2.311885
 H         3.618410         2.047013        -3.930884
 H         3.022177         2.898815        -0.372551
 H         1.643975         3.911849        -0.753883
 H         0.280801         2.371454         0.431392
 H         0.015626         0.120901        -1.181168
 H        -0.916843         1.601496        -1.373037
 H         1.022784         0.834145        -3.398784
 H         2.441326         0.103503        -0.156014
