19
Iteration:  1502
 C         3.467787         2.499531        -2.978507
 C         2.094557         2.418590        -2.211467
 C         2.080671         2.618824        -0.710003
 C         0.896510         1.816411        -0.216422
 C         0.105076         1.229267        -1.502309
 C         0.926352         1.614427        -2.655633
 O         0.969770         3.098061        -2.814222
 C         1.462807         0.635995         0.557464
 O         1.766181         0.660137         1.678595
 H         3.870749         3.391149        -2.652472
 H         4.254908         1.769475        -2.628264
 H         3.360466         2.475267        -4.099091
 H         3.040408         2.448180        -0.202618
 H         1.759345         3.731768        -0.544328
 H         0.338301         2.130745         0.692351
 H         0.075878         0.159172        -1.315308
 H        -0.904200         1.553760        -1.726782
 H         0.880591         1.128131        -3.637077
 H         1.729715        -0.293962        -0.085461
