19
Iteration:  2736
 C         3.392936         2.846729        -2.950989
 C         2.121356         2.470961        -2.321195
 C         2.138464         2.618973        -0.810961
 C         0.852926         1.755085        -0.296796
 C         0.369444         0.892476        -1.508673
 C         1.009347         1.553871        -2.729313
 O         0.848762         2.949321        -2.849742
 C         1.565632         0.866224         0.705186
 O         1.485855         0.639468         1.900888
 H         3.484240         3.925754        -2.662311
 H         4.168770         2.311673        -2.395357
 H         3.360802         2.715104        -4.074739
 H         3.166075         2.247711        -0.522470
 H         1.984172         3.576665        -0.643146
 H         0.123689         2.439521         0.007751
 H         0.763883        -0.150375        -1.535105
 H        -0.677718         0.933270        -1.540531
 H         1.131181         0.980171        -3.616318
 H         2.310414         0.162366         0.152414
