19
Iteration:  3452charge 0 multiplicity 1
 C         3.400381         3.077443        -2.883140
 C         2.080295         2.567820        -2.340445
 C         2.025457         2.689224        -0.795616
 C         0.927396         1.634157        -0.290059
 C         0.439094         0.845526        -1.517829
 C         1.192548         1.396349        -2.708422
 O         0.770390         2.806470        -3.000304
 C         1.533526         0.702288         0.715699
 O         1.518635         0.853103         1.944239
 H         3.414406         4.163162        -2.501944
 H         4.343047         2.526926        -2.646716
 H         3.112273         3.223729        -4.033733
 H         2.941702         2.203023        -0.251192
 H         1.640553         3.601298        -0.387266
 H         0.082936         2.150501         0.158876
 H         0.483823        -0.257010        -1.528054
 H        -0.654385         0.968009        -1.845488
 H         1.502292         0.807177        -3.605412
 H         1.901910        -0.278070         0.405551
