19
Iteration:  1891
 C         3.089244         3.214710        -3.350875
 C         2.181494         2.493192        -2.411300
 C         2.661111         1.997179        -1.011719
 C         1.307912         1.450956        -0.415795
 C         0.584242         0.780672        -1.528030
 C         0.981035         1.675471        -2.733461
 O         0.839380         3.066729        -2.359799
 C         1.353679         0.684798         0.883057
 O         0.919230         1.101621         2.005153
 H         3.492317         4.096005        -2.715298
 H         3.976114         2.681131        -3.641661
 H         2.597112         3.567473        -4.286995
 H         3.444915         1.109050        -1.033279
 H         3.137810         2.798077        -0.439325
 H         0.787359         2.364678        -0.258242
 H         1.030351        -0.165054        -1.780988
 H        -0.558770         0.692284        -1.307556
 H         0.703029         1.526777        -3.867919
 H         1.904544        -0.299396         0.878942
