19
Iteration:  1969charge 0 multiplicity 1
 C         3.174925         3.002099        -3.372917
 C         2.187366         2.545025        -2.347244
 C         2.403820         2.329362        -0.862325
 C         1.117602         1.545221        -0.320196
 C         0.506677         0.873641        -1.573056
 C         0.985536         1.683021        -2.719504
 O         0.886159         3.058980        -2.507182
 C         1.522843         0.642497         0.798853
 O         1.081128         0.877271         1.983874
 H         3.827504         3.813177        -3.005238
 H         3.791358         2.132338        -3.194082
 H         3.009785         3.007828        -4.509200
 H         3.370560         1.871293        -0.578347
 H         2.470007         3.312182        -0.371751
 H         0.516807         2.343213         0.092510
 H         0.863610        -0.126067        -1.669847
 H        -0.608098         0.886110        -1.457419
 H         0.987383         1.267681        -3.710846
 H         2.071014        -0.312016         0.582722
