19
Iteration:  1161charge 0 multiplicity 1
 C         3.327873         2.457953        -3.290990
 C         2.122287         2.402583        -2.392701
 C         2.312341         2.472304        -0.870376
 C         1.187165         1.713437        -0.244140
 C         0.296399         1.193430        -1.402779
 C         0.832962         1.804160        -2.729587
 O         0.996292         3.252279        -2.623146
 C         1.618657         0.688562         0.805922
 O         1.136459         0.569980         1.863678
 H         3.925557         3.353146        -3.020039
 H         4.091527         1.601811        -3.324871
 H         2.998232         2.649613        -4.264637
 H         3.310200         2.116165        -0.767366
 H         2.439229         3.501818        -0.460981
 H         0.749103         2.468693         0.429562
 H         0.449466         0.137833        -1.497042
 H        -0.675564         1.536976        -1.228488
 H         0.396402         1.357519        -3.675948
 H         2.385457        -0.047795         0.498942
