19
Iteration:  2411
 C         3.431222         2.766594        -3.150254
 C         2.165339         2.517382        -2.356215
 C         2.202963         2.739880        -0.834082
 C         1.173676         1.769773        -0.225042
 C         0.332016         1.028684        -1.276738
 C         0.981057         1.600164        -2.568897
 O         0.768283         3.012421        -2.886762
 C         1.667214         0.660145         0.663162
 O         1.171436         0.504244         1.800210
 H         3.551587         3.788892        -3.240596
 H         4.333978         2.342832        -2.711449
 H         3.393315         2.423853        -4.175647
 H         3.201822         2.675066        -0.364514
 H         1.727265         3.779682        -0.728422
 H         0.563227         2.346888         0.415574
 H         0.675844        -0.013275        -1.198448
 H        -0.684580         1.184083        -1.364472
 H         0.986382         0.971451        -3.449567
 H         2.336673        -0.145822         0.211164
