19
Iteration:  1538
 C         3.424945         2.525095        -3.010454
 C         2.107765         2.537185        -2.305900
 C         2.054167         2.762492        -0.666992
 C         0.941929         1.881823        -0.096345
 C         0.088134         1.333999        -1.449599
 C         1.031978         1.583605        -2.632536
 O         0.944070         2.973655        -3.011059
 C         1.460959         0.579947         0.602799
 O         1.740332         0.459349         1.751484
 H         3.892045         3.372642        -2.520951
 H         3.950842         1.554014        -3.020319
 H         3.452973         2.982023        -4.018508
 H         3.086203         2.536170        -0.355954
 H         1.859263         3.752508        -0.322870
 H         0.426196         2.575198         0.602381
 H        -0.128254         0.214735        -1.294856
 H        -0.925728         1.783873        -1.708817
 H         1.181398         0.769264        -3.328333
 H         1.522464        -0.306888        -0.144307
