19
Iteration:  2152
 C         3.446779         2.654262        -2.965316
 C         2.089102         2.373121        -2.260904
 C         1.931917         2.822703        -0.759904
 C         0.989093         1.769719        -0.155218
 C         0.152142         1.312875        -1.465262
 C         0.946056         1.518395        -2.630154
 O         0.994911         2.928598        -2.934095
 C         1.795310         0.781737         0.625800
 O         1.495659         0.426155         1.705627
 H         3.786015         3.647926        -2.612847
 H         4.222067         1.951647        -2.751018
 H         3.128931         2.563864        -4.016588
 H         3.018095         2.804184        -0.254023
 H         1.518095         3.810155        -0.808327
 H         0.336036         2.084585         0.597516
 H        -0.064826         0.258455        -1.234905
 H        -0.685789         2.057753        -1.499074
 H         0.777652         0.792224        -3.453884
 H         2.491795         0.163272         0.045643
