19
Iteration:  2146charge 0 multiplicity 1
 C         3.457537         2.641798        -2.987580
 C         2.107481         2.383773        -2.271655
 C         1.929451         2.879986        -0.726791
 C         1.029099         1.763543        -0.151943
 C         0.132002         1.261301        -1.428689
 C         0.954572         1.511292        -2.642019
 O         0.962121         2.936779        -2.932769
 C         1.810316         0.755293         0.575653
 O         1.469549         0.445500         1.726553
 H         3.880411         3.547517        -2.552362
 H         4.250722         1.936165        -2.578699
 H         3.329843         2.616216        -4.102385
 H         2.896801         2.711195        -0.368026
 H         1.715177         3.994678        -0.700539
 H         0.212197         2.119945         0.585770
 H        -0.145598         0.221860        -1.294918
 H        -0.765773         1.904018        -1.552868
 H         0.667343         0.931071        -3.508482
 H         2.587097         0.141368        -0.005267
