19
Iteration:  1606charge 0 multiplicity 1
 C         3.468436         2.416311        -2.899797
 C         2.084813         2.475815        -2.248600
 C         2.022643         2.749225        -0.814109
 C         0.980272         1.911908        -0.143861
 C         0.150379         1.303683        -1.363107
 C         0.959796         1.597902        -2.589558
 O         0.897609         3.023554        -2.889724
 C         1.712389         0.767881         0.451951
 O         1.527138         0.396569         1.667232
 H         3.827200         3.521537        -3.122847
 H         4.114150         1.779159        -2.268227
 H         3.430596         2.128883        -3.939263
 H         2.998632         2.521232        -0.335141
 H         1.856920         3.792955        -0.688228
 H         0.397375         2.344400         0.667008
 H         0.094374         0.128586        -1.344738
 H        -0.956243         1.633409        -1.377577
 H         0.905472         1.044249        -3.567401
 H         2.566868         0.322194        -0.152118
