19
Iteration:  2815charge 0 multiplicity 1
 C         3.455327         2.794745        -2.892748
 C         2.125081         2.533944        -2.274349
 C         1.860204         2.786903        -0.733862
 C         0.855858         1.726878        -0.226603
 C         0.263317         1.017152        -1.457199
 C         1.164372         1.544164        -2.588152
 O         0.888401         2.896842        -3.062107
 C         1.524629         0.683852         0.606795
 O         1.717150         0.639991         1.814902
 H         3.683465         3.857900        -3.004207
 H         4.177088         2.132884        -2.338969
 H         3.421816         2.451338        -4.016410
 H         2.750515         2.812555        -0.060647
 H         1.414607         3.725148        -0.674884
 H         0.000476         2.260556         0.350423
 H         0.087883        -0.096364        -1.407934
 H        -0.788838         1.290051        -1.653598
 H         1.237346         0.714390        -3.436623
 H         1.929403        -0.174701         0.018449
