19
Iteration:  2341charge 0 multiplicity 1
 C         3.412360         2.660248        -3.042164
 C         2.160129         2.441538        -2.224933
 C         2.042962         2.780997        -0.750853
 C         0.925699         1.919069        -0.173343
 C         0.234018         1.143614        -1.373288
 C         1.048182         1.510333        -2.648816
 O         0.879668         2.960690        -2.906318
 C         1.729480         0.752985         0.612049
 O         1.423391         0.414757         1.696919
 H         3.645562         3.761518        -2.923631
 H         4.289548         2.074844        -2.787740
 H         3.185461         2.517454        -4.087480
 H         3.044940         2.532866        -0.295256
 H         1.833388         3.871917        -0.672708
 H         0.221107         2.460409         0.553624
 H         0.221963         0.078111        -1.169476
 H        -0.771627         1.690938        -1.336961
 H         0.995435         0.910854        -3.592303
 H         2.426553         0.192996        -0.092748
