19
Iteration:  1447charge 0 multiplicity 1
 C         3.395903         2.462564        -3.007644
 C         2.108795         2.552779        -2.257432
 C         2.152670         2.469147        -0.829318
 C         0.874628         1.635990        -0.270836
 C         0.166299         1.181264        -1.529317
 C         0.880290         1.831860        -2.755973
 O         0.964253         3.177029        -2.787662
 C         1.498426         0.502820         0.708124
 O         1.707591         0.801677         1.823892
 H         3.624124         3.432433        -3.232173
 H         4.127355         2.078665        -2.287300
 H         3.493151         1.886917        -3.941369
 H         3.037783         1.897162        -0.572461
 H         2.180149         3.371229        -0.144870
 H         0.325629         2.182666         0.518106
 H         0.067083         0.081154        -1.548829
 H        -0.857531         1.540501        -1.593999
 H         0.979336         1.238150        -3.687109
 H         1.931289        -0.372442         0.250296
