19
Iteration:   558
 C         3.130580         2.682078        -3.573503
 C         2.122492         2.380300        -2.483476
 C         2.719851         1.830908        -1.183077
 C         1.417464         1.698157        -0.283685
 C         0.394534         1.079868        -1.334304
 C         0.737423         1.883392        -2.540486
 O         1.136641         3.334449        -2.274006
 C         1.513955         0.878298         0.927237
 O         0.718142         0.795064         1.847625
 H         3.875185         3.219585        -2.959884
 H         3.636258         1.770118        -4.130729
 H         2.709113         3.339944        -4.406236
 H         2.930368         0.748685        -1.232512
 H         3.551290         2.561357        -0.841122
 H         0.931621         2.644255         0.043529
 H         0.745684         0.068487        -1.665279
 H        -0.590701         0.860433        -0.951902
 H         0.101897         1.856601        -3.346419
 H         2.556233         0.297166         1.023078
