19
Iteration:  4429
 C         3.291744         3.334653        -3.098536
 C         2.002857         2.783863        -2.337338
 C         1.856185         2.965948        -0.824093
 C         0.986621         1.770662        -0.179848
 C         1.033381         0.625808        -1.347123
 C         1.423168         1.404107        -2.617581
 O         0.711576         2.634444        -2.961719
 C         1.515494         1.107800         1.118811
 O         1.048579         0.032770         1.465024
 H         2.932891         4.375610        -3.392476
 H         4.241899         3.380137        -2.465791
 H         3.491484         2.857921        -4.068855
 H         2.885707         2.975389        -0.393643
 H         1.428913         4.032767        -0.744237
 H        -0.047113         2.154734        -0.148635
 H         1.877425        -0.023602        -1.139627
 H         0.047566         0.117144        -1.473056
 H         1.704879         0.687321        -3.399589
 H         2.513679         1.433616         1.620395
