19
Iteration:  1588charge 0 multiplicity 1
 C         3.451021         2.538750        -2.956440
 C         2.121628         2.392755        -2.244415
 C         2.048693         2.794809        -0.722418
 C         0.988339         1.765331        -0.210631
 C         0.090593         1.317018        -1.340518
 C         0.878167         1.577838        -2.635795
 O         0.983276         3.008523        -2.919665
 C         1.720370         0.732336         0.459682
 O         1.544474         0.454560         1.710869
 H         3.871277         3.492428        -2.696515
 H         3.997225         1.665073        -2.597244
 H         3.525790         2.511003        -4.075906
 H         3.022635         2.791840        -0.251852
 H         1.705748         3.877217        -0.782526
 H         0.305834         2.131051         0.582105
 H        -0.410077         0.424882        -1.139736
 H        -0.662816         2.058047        -1.379208
 H         0.816764         0.779378        -3.372019
 H         2.380274         0.041723        -0.115260
