19
Iteration:  3480charge 0 multiplicity 1
 C         3.325833         2.967220        -2.780951
 C         2.093157         2.566012        -2.205015
 C         1.898655         2.612234        -0.714539
 C         0.774066         1.531938        -0.360206
 C         0.372373         0.866636        -1.623632
 C         1.140619         1.403929        -2.735171
 O         0.909318         2.843143        -2.958323
 C         1.605736         0.783423         0.658879
 O         1.683376         0.981677         1.853583
 H         3.402311         4.002232        -2.532432
 H         4.214092         2.373750        -2.499516
 H         3.177103         2.825878        -3.789738
 H         2.771743         2.455355        -0.119348
 H         1.578618         3.633511        -0.231902
 H        -0.085872         2.012452         0.123317
 H         0.610193        -0.211690        -1.674650
 H        -0.649715         0.805734        -1.912926
 H         1.353899         0.876224        -3.689814
 H         2.202436        -0.125975         0.159114
