19
Iteration:   376charge 0 multiplicity 1
 C         3.224515         2.069108        -3.383703
 C         2.181385         2.310814        -2.400161
 C         2.400397         2.460355        -0.838084
 C         1.192330         1.920498        -0.022390
 C         0.155835         1.723726        -1.112944
 C         0.722836         1.974436        -2.545580
 O         1.202487         3.392119        -2.784423
 C         1.394578         0.525913         0.550047
 O         1.383168         0.289686         1.734503
 H         4.110446         2.681849        -3.083022
 H         3.523142         0.964535        -3.283000
 H         2.943923         2.140720        -4.381943
 H         3.298906         2.044933        -0.486231
 H         2.351246         3.524570        -0.738961
 H         0.801028         2.620353         0.754995
 H         0.014776         0.589591        -1.054846
 H        -0.863916         2.162001        -0.936181
 H         0.338317         1.380752        -3.533682
 H         1.436609        -0.211928        -0.388396
