19
Iteration:  2050
 C         3.365663         2.749163        -3.120557
 C         2.135487         2.499273        -2.283675
 C         2.214009         2.645735        -0.777684
 C         1.088835         1.691686        -0.249533
 C         0.176360         1.111057        -1.510859
 C         0.994751         1.556625        -2.670834
 O         0.885962         2.999468        -2.808588
 C         1.709724         0.713075         0.671355
 O         1.300716         0.592127         1.859503
 H         3.648920         3.824539        -3.111268
 H         4.229787         2.162286        -2.618443
 H         3.092165         2.561107        -4.157430
 H         3.262069         2.526323        -0.218142
 H         1.761474         3.655857        -0.497454
 H         0.532263         2.387080         0.456156
 H         0.178766        -0.048170        -1.522791
 H        -0.847850         1.427506        -1.422028
 H         0.920079         0.954416        -3.642040
 H         2.589104         0.095684         0.253397
