19
Iteration:  1698
 C         3.367973         2.661913        -3.078424
 C         2.128033         2.443565        -2.368855
 C         2.268438         2.729312        -0.804880
 C         1.085316         1.875957        -0.097194
 C         0.197282         1.308986        -1.326576
 C         1.016667         1.536701        -2.558381
 O         0.813013         2.964749        -2.984664
 C         1.762515         0.733111         0.653685
 O         1.247426         0.326439         1.719476
 H         3.679321         3.697734        -2.863462
 H         4.125433         2.027776        -2.585469
 H         3.320043         2.718635        -4.229758
 H         3.158433         2.347248        -0.385737
 H         2.204835         3.858712        -0.716696
 H         0.514494         2.483702         0.665962
 H        -0.146340         0.311275        -1.074899
 H        -0.706887         1.804457        -1.496260
 H         0.829214         0.925690        -3.351781
 H         2.707206         0.291799         0.272039
