19
Iteration:  3230
 C         3.135610         3.074299        -3.376722
 C         2.050639         2.618843        -2.441856
 C         2.537825         2.475750        -0.962332
 C         1.280696         1.672501        -0.223705
 C         0.896928         0.679151        -1.470490
 C         1.086371         1.597477        -2.689659
 O         0.661366         2.927796        -2.527568
 C         1.593549         0.963169         1.051486
 O         0.692870         0.603158         1.769475
 H         3.417763         4.115203        -3.076340
 H         3.899486         2.271077        -3.108451
 H         2.851336         2.942220        -4.403255
 H         3.419430         1.899486        -0.947493
 H         2.797548         3.427800        -0.577118
 H         0.432448         2.200154        -0.046203
 H         1.612159        -0.165727        -1.674096
 H        -0.117688         0.423346        -1.341834
 H         0.945318         1.228734        -3.670996
 H         2.636428         0.801618         1.377574
