19
Iteration:  2947
 C         3.435664         2.684176        -2.679859
 C         2.086977         2.473479        -2.202589
 C         1.768216         2.867500        -0.784564
 C         0.836592         1.791232        -0.171945
 C         0.178619         1.074344        -1.476028
 C         1.117029         1.469766        -2.634854
 O         0.873289         2.842784        -3.045635
 C         1.708619         0.770786         0.471586
 O         1.761686         0.620883         1.682765
 H         3.767412         3.742299        -2.856859
 H         4.137406         2.374671        -1.858834
 H         3.803267         2.085719        -3.521415
 H         2.822687         2.958300        -0.304121
 H         1.371520         3.834178        -0.683793
 H         0.051735         2.156439         0.583532
 H         0.117401        -0.016172        -1.353066
 H        -0.737536         1.646737        -1.689366
 H         1.327831         0.696292        -3.471998
 H         2.180008         0.136599        -0.279484
