19
Iteration:  4089charge 0 multiplicity 1
 C         3.258504         3.401670        -3.010134
 C         2.064270         2.618606        -2.237332
 C         1.927717         2.884260        -0.701043
 C         0.804681         1.811648        -0.263140
 C         0.810524         0.692642        -1.301169
 C         1.402054         1.323448        -2.559385
 O         0.884294         2.558109        -3.011607
 C         1.096704         1.249890         1.060946
 O         1.603385         0.139664         1.228121
 H         3.194208         4.405478        -2.741149
 H         4.093770         2.954651        -2.679758
 H         2.989521         3.077427        -4.078523
 H         2.949009         2.596310        -0.335553
 H         1.536242         3.845344        -0.578785
 H        -0.182836         2.299318        -0.018579
 H         1.338696        -0.295570        -1.101861
 H        -0.242301         0.242110        -1.485437
 H         1.792583         0.577343        -3.231985
 H         0.937613         1.930814         1.928053
