19
Iteration:  3842charge 0 multiplicity 1
 C         3.216122         3.196049        -3.066925
 C         2.114981         2.636515        -2.187710
 C         2.065735         2.663633        -0.746835
 C         0.828030         1.661660        -0.458330
 C         1.059262         0.548707        -1.492980
 C         1.315440         1.412945        -2.749337
 O         0.692199         2.788581        -2.628639
 C         0.876062         1.217478         0.946973
 O         1.680377         0.430218         1.480777
 H         2.979399         4.254057        -3.343432
 H         4.115748         3.218453        -2.391274
 H         3.310898         2.741820        -3.960338
 H         2.907242         2.287524        -0.059701
 H         2.061747         3.756108        -0.323689
 H        -0.200114         2.228584        -0.517811
 H         1.971126         0.017089        -1.384634
 H         0.227120        -0.045367        -1.435956
 H         1.511921         1.035231        -3.733912
 H         0.023694         1.557238         1.601900
