19
Iteration:  4700charge 0 multiplicity 1
 C         3.259429         3.262253        -2.706255
 C         2.013558         2.704731        -2.205210
 C         1.609805         3.004253        -0.818044
 C         0.771841         1.813512        -0.234296
 C         0.464504         0.858915        -1.376486
 C         1.517339         1.270174        -2.435572
 O         0.949479         2.435697        -3.135654
 C         1.445363         1.235094         0.957539
 O         1.754767         0.074040         1.161849
 H         3.178919         4.375073        -2.636123
 H         4.222276         2.920026        -2.339219
 H         3.459647         2.831084        -3.811427
 H         2.607675         3.067650        -0.311585
 H         1.234252         3.987438        -0.731277
 H        -0.151576         2.249017         0.273479
 H         0.530376        -0.136670        -1.126591
 H        -0.522223         1.006018        -1.720663
 H         2.004261         0.432231        -2.986097
 H         1.772915         1.898881         1.787905
