19
Iteration:  1795
 C         3.274364         2.741751        -3.320170
 C         2.148866         2.546229        -2.352138
 C         2.382437         2.425889        -0.832996
 C         1.189704         1.672786        -0.309813
 C         0.516835         0.842004        -1.451061
 C         0.901058         1.794887        -2.712890
 O         0.816062         3.194686        -2.671265
 C         1.644638         0.797035         0.842805
 O         1.008376         0.617104         1.936205
 H         3.748952         3.748221        -3.331159
 H         4.007504         2.032826        -2.955090
 H         2.999166         2.589893        -4.397599
 H         3.268749         1.791010        -0.774247
 H         2.478875         3.379058        -0.259194
 H         0.401481         2.321907         0.100398
 H         1.067613        -0.185511        -1.670065
 H        -0.521431         0.584913        -1.272217
 H         0.718451         1.425146        -3.658542
 H         2.501808         0.104069         0.657771
