19
Iteration:  4713
 C         3.310955         3.188876        -2.717796
 C         1.982674         2.567998        -2.175363
 C         1.557291         3.053696        -0.733492
 C         0.717420         1.872745        -0.190925
 C         0.484742         0.848905        -1.421434
 C         1.415474         1.299182        -2.492247
 O         0.982174         2.475539        -3.234392
 C         1.547696         1.242219         1.067289
 O         1.796174         0.060895         1.130852
 H         3.334664         4.281180        -2.703171
 H         4.034992         2.901554        -1.924993
 H         3.398699         2.982993        -3.827848
 H         2.389376         3.212163        -0.111944
 H         1.001924         3.934084        -0.710872
 H        -0.273880         2.169100         0.139094
 H         0.666923        -0.121347        -1.061550
 H        -0.517129         0.959628        -1.875926
 H         2.158867         0.685557        -3.091938
 H         1.747358         2.099472         1.787575
