19
Iteration:  3342
 C         3.137963         3.219155        -3.292742
 C         2.091078         2.548942        -2.461711
 C         2.470425         2.418514        -0.923900
 C         1.332970         1.654797        -0.317805
 C         0.870666         0.625557        -1.430619
 C         1.056027         1.492521        -2.704166
 O         0.679077         2.962235        -2.599092
 C         1.586713         0.934411         1.017885
 O         0.703717         0.715984         1.855027
 H         3.170132         4.336591        -3.058875
 H         4.130525         2.678494        -3.342448
 H         3.081406         3.080048        -4.402472
 H         3.346809         1.830889        -0.704512
 H         2.814928         3.256458        -0.420685
 H         0.446829         2.295173        -0.217208
 H         1.656081        -0.164596        -1.669004
 H        -0.144662         0.118891        -1.310049
 H         0.692496         1.011813        -3.664229
 H         2.672677         0.594353         1.095952
