19
Iteration:  2421charge 0 multiplicity 1
 C         3.402885         2.807244        -3.172029
 C         2.148738         2.451849        -2.336586
 C         2.155000         2.742755        -0.908381
 C         1.149717         1.806947        -0.172724
 C         0.425778         0.948124        -1.350394
 C         1.042162         1.566947        -2.572700
 O         0.788187         3.066438        -2.805520
 C         1.639466         0.717215         0.694330
 O         1.159446         0.513102         1.767315
 H         3.659017         3.808753        -3.241969
 H         4.106381         2.136377        -2.740198
 H         3.166690         2.396025        -4.097031
 H         3.207821         2.484777        -0.580913
 H         2.157611         3.883583        -0.641808
 H         0.477660         2.364932         0.474084
 H         0.384075        -0.163728        -1.357760
 H        -0.583389         1.168809        -1.122164
 H         0.978702         0.865461        -3.414995
 H         2.283046        -0.094355         0.188067
