19
Iteration:  3773
 C         3.200012         3.378179        -2.893536
 C         2.114988         2.514530        -2.248182
 C         1.959624         2.667299        -0.701628
 C         0.845754         1.790507        -0.321867
 C         0.627799         0.729427        -1.499215
 C         1.394300         1.330313        -2.678071
 O         0.854353         2.628144        -3.038188
 C         0.930239         1.039268         1.099042
 O         1.891643         0.457440         1.471963
 H         3.119395         4.386443        -2.513446
 H         4.125767         2.947148        -2.559996
 H         3.093405         3.544764        -3.972385
 H         3.071344         2.428201        -0.218550
 H         1.862774         3.790595        -0.498474
 H        -0.086762         2.348996        -0.375011
 H         1.029303        -0.261371        -1.314823
 H        -0.440207         0.775322        -1.831483
 H         1.903366         0.804082        -3.531147
 H         0.104153         1.060163         1.809992
