19
Iteration:  1359
 C         3.296727         2.891084        -3.256651
 C         2.142134         2.507225        -2.347716
 C         2.459336         2.084608        -0.878277
 C         1.103888         1.563419        -0.381358
 C         0.386550         1.037670        -1.554092
 C         0.979192         1.705289        -2.746836
 O         0.871580         3.163921        -2.593218
 C         1.204759         0.587882         0.818859
 O         1.443932         0.973679         2.034353
 H         4.024149         3.554761        -2.861417
 H         3.781934         2.016443        -3.793228
 H         2.831162         3.390349        -4.108908
 H         3.171339         1.284705        -0.964557
 H         2.882398         2.902674        -0.196301
 H         0.623658         2.393623         0.171775
 H         0.390414        -0.088166        -1.398990
 H        -0.657253         1.321146        -1.667911
 H         0.896575         1.531829        -3.828281
 H         0.714881        -0.403883         0.791143
