19
Iteration:  2241
 C         3.452201         2.587905        -2.954294
 C         2.186621         2.445506        -2.266343
 C         1.920587         2.807360        -0.790666
 C         0.940105         1.819671        -0.212410
 C         0.144707         1.251710        -1.334619
 C         0.967237         1.586721        -2.608592
 O         0.950116         2.918288        -2.915330
 C         1.719574         0.782658         0.506872
 O         1.535359         0.423899         1.695661
 H         3.851290         3.585313        -3.017151
 H         4.147967         2.172445        -2.339542
 H         3.314056         1.981323        -3.894721
 H         2.823504         2.770865        -0.048229
 H         1.414246         3.772014        -0.730392
 H         0.464955         2.183191         0.674039
 H         0.159917         0.170543        -1.246965
 H        -0.929112         1.705636        -1.433880
 H         0.950730         1.011888        -3.463237
 H         2.642208         0.399783        -0.042073
