19
Iteration:    79
 C         3.224943         2.605901        -3.378982
 C         2.157598         2.423296        -2.312361
 C         2.680143         2.381289        -0.936149
 C         1.337290         1.942411        -0.142570
 C         0.470032         1.181317        -1.222913
 C         0.836816         1.782729        -2.538631
 O         0.974775         3.148483        -2.576532
 C         1.558291         0.964051         0.981688
 O         0.648570         0.246297         1.320894
 H         3.832716         3.434141        -3.274567
 H         3.809335         1.682931        -3.397862
 H         2.715307         2.517937        -4.419315
 H         3.442065         1.614570        -0.878848
 H         3.231485         3.268713        -0.644530
 H         0.833057         2.814626         0.288312
 H         0.946151         0.236574        -1.284389
 H        -0.533214         1.006969        -0.927171
 H         0.571733         1.285366        -3.379428
 H         2.545422         1.062752         1.634236
