19
Iteration:  1459
 C         3.418677         2.516268        -2.987802
 C         2.091681         2.470992        -2.291545
 C         2.111523         2.418970        -0.682220
 C         0.816150         1.588066        -0.217559
 C         0.058205         1.223154        -1.578033
 C         0.923841         1.693612        -2.740617
 O         0.997037         3.292710        -2.847248
 C         1.585837         0.561172         0.621344
 O         1.759667         0.802283         1.857821
 H         3.829186         3.385183        -3.252365
 H         4.174497         2.026915        -2.339773
 H         3.205819         1.804601        -3.835285
 H         3.032355         1.949334        -0.361204
 H         2.160186         3.479622        -0.341621
 H         0.171575         2.281232         0.352315
 H         0.080360         0.108999        -1.726277
 H        -0.987190         1.552754        -1.575650
 H         0.773481         1.181874        -3.694296
 H         1.968288        -0.323438         0.155689
