19
Iteration:  2975charge 0 multiplicity 1
 C         3.407761         2.780456        -2.812264
 C         2.155975         2.468027        -2.120940
 C         1.817588         2.842766        -0.683710
 C         0.829738         1.735216        -0.195832
 C         0.062628         1.142344        -1.513680
 C         1.101577         1.386510        -2.580285
 O         0.981566         2.782417        -3.033427
 C         1.721247         0.840974         0.472086
 O         1.716507         0.610099         1.673959
 H         3.677898         3.797589        -2.957533
 H         4.208419         2.417790        -2.193498
 H         3.505841         2.413087        -3.907331
 H         2.772732         2.746252        -0.198371
 H         1.201136         3.811547        -0.527301
 H         0.087222         2.056458         0.464579
 H        -0.185953         0.034323        -1.432727
 H        -0.883959         1.707028        -1.648910
 H         1.451643         0.614854        -3.304834
 H         2.424657         0.370887        -0.303349
