19
Iteration:  3779charge 0 multiplicity 1
 C         3.204891         3.385006        -2.865803
 C         2.082040         2.550285        -2.265699
 C         2.003054         2.661990        -0.712774
 C         0.807573         1.744390        -0.289567
 C         0.667484         0.767912        -1.513890
 C         1.425735         1.360351        -2.721060
 O         0.857024         2.627373        -3.015640
 C         0.918726         1.058000         1.070813
 O         1.895251         0.430731         1.517592
 H         3.054735         4.501688        -2.702932
 H         4.222580         2.935646        -2.709894
 H         3.127102         3.349410        -4.025519
 H         2.885619         2.228061        -0.446152
 H         1.809927         3.694322        -0.607337
 H        -0.155393         2.297882        -0.365524
 H         1.062908        -0.208634        -1.099023
 H        -0.434504         0.581743        -1.671529
 H         1.672494         0.700088        -3.560707
 H        -0.000953         1.245967         1.750793
