19
Iteration:  1305charge 0 multiplicity 1
 C         3.275471         2.952888        -3.208956
 C         2.112450         2.368561        -2.366759
 C         2.442506         1.775889        -0.976630
 C         1.066272         1.402543        -0.455321
 C         0.440743         0.813033        -1.702349
 C         0.810444         1.852806        -2.740850
 O         0.994454         3.284446        -2.199656
 C         1.307891         0.673068         0.791753
 O         1.316179         1.331547         1.921434
 H         3.801464         3.753942        -2.722405
 H         3.871503         1.957928        -3.461105
 H         2.845873         3.301689        -4.183011
 H         2.995264         0.878514        -1.085857
 H         3.049117         2.488820        -0.335614
 H         0.514653         2.320717        -0.120021
 H         0.900818        -0.214070        -1.944326
 H        -0.639678         0.678196        -1.665401
 H         0.774553         1.785505        -3.838038
 H         2.015041        -0.225975         0.774557
