19
Iteration:  4911
 C         3.478856         2.821106        -2.320474
 C         2.042826         2.517743        -2.000071
 C         1.318213         3.085671        -0.805236
 C         0.505211         1.856298        -0.261835
 C         0.220233         0.858020        -1.322044
 C         1.328404         1.267927        -2.376821
 O         1.036044         2.513544        -3.065822
 C         1.489892         1.284031         0.773405
 O         2.290538         0.384724         0.633950
 H         3.408645         3.876321        -2.670512
 H         4.044790         2.839981        -1.313116
 H         4.020094         2.214086        -2.985857
 H         1.970612         3.734450        -0.130870
 H         0.767594         3.775026        -1.329991
 H        -0.253307         2.289231         0.396105
 H         0.347199        -0.105008        -1.067548
 H        -0.721090         0.911206        -1.840700
 H         1.759463         0.440473        -3.031390
 H         1.433813         1.946885         1.622790
