19
Iteration:  2542
 C         2.982726         3.096305        -3.496978
 C         2.155743         2.578697        -2.336885
 C         2.696529         2.279270        -0.961781
 C         1.345147         1.694052        -0.347618
 C         0.800190         0.724270        -1.399365
 C         1.122868         1.597810        -2.628870
 O         0.785056         2.999712        -2.388505
 C         1.470460         0.867167         0.887978
 O         0.633193         0.770710         1.821422
 H         3.237803         4.061850        -3.279076
 H         3.878200         2.535886        -3.590600
 H         2.340900         3.012241        -4.373606
 H         3.485140         1.517000        -1.139332
 H         3.193981         3.067424        -0.323621
 H         0.621390         2.446293        -0.332723
 H         1.330515        -0.251110        -1.419875
 H        -0.211315         0.482389        -1.273216
 H         0.825935         1.303580        -3.614926
 H         2.270377         0.070179         0.875387
