19
Iteration:  3033charge 0 multiplicity 1
 C         3.506653         2.710108        -2.795937
 C         2.038086         2.591782        -2.255886
 C         1.806483         2.964648        -0.812191
 C         0.966978         1.772380        -0.170694
 C         0.355682         1.092299        -1.365532
 C         1.175328         1.504459        -2.624427
 O         0.751824         2.834511        -3.143295
 C         1.675905         0.657353         0.548754
 O         1.578495         0.545508         1.763053
 H         3.912925         3.680700        -2.633513
 H         4.043021         1.920117        -2.268408
 H         3.409308         2.399703        -3.827679
 H         2.827806         3.027878        -0.221209
 H         1.414344         3.932036        -0.560325
 H         0.149906         2.095870         0.396689
 H         0.234662        -0.025455        -1.169774
 H        -0.689976         1.297003        -1.477697
 H         1.342664         0.716795        -3.440600
 H         2.345228        -0.029190         0.014981
