19
Iteration:  4668charge 0 multiplicity 1
 C         3.222031         3.309877        -2.851606
 C         2.112916         2.565811        -2.175482
 C         1.690352         2.997596        -0.786691
 C         0.781756         1.851939        -0.205486
 C         0.637608         0.747975        -1.360906
 C         1.508289         1.294847        -2.532132
 O         0.907814         2.492969        -3.008936
 C         1.409028         1.262140         1.077540
 O         1.569503         0.059017         1.118714
 H         3.021856         4.389199        -2.939397
 H         4.238987         3.382462        -2.480108
 H         3.072439         3.081002        -4.006740
 H         2.537532         3.079447        -0.175329
 H         1.468777         4.003364        -0.888910
 H        -0.124476         2.410158        -0.096723
 H         1.140055        -0.156275        -1.128862
 H        -0.406530         0.536973        -1.598420
 H         1.927284         0.597915        -3.305282
 H         1.724532         2.050876         1.887349
