19
Iteration:   995charge 0 multiplicity 1
 C         3.375822         2.112491        -3.069255
 C         2.125351         2.382857        -2.228157
 C         2.152370         2.954290        -0.760499
 C         1.110314         2.051822        -0.105428
 C         0.103029         1.528354        -1.240219
 C         0.859224         1.645163        -2.497241
 O         1.067108         3.039249        -2.832109
 C         1.659792         0.758880         0.426400
 O         1.367318         0.199809         1.502367
 H         3.855382         3.116962        -3.269134
 H         4.100737         1.428456        -2.723204
 H         3.056871         1.839929        -4.196879
 H         3.111533         2.774485        -0.168523
 H         1.930030         4.077278        -0.747786
 H         0.693809         2.525985         0.841788
 H        -0.133617         0.482918        -1.116726
 H        -0.795272         2.134321        -1.244727
 H         0.665443         0.879975        -3.289831
 H         2.511317         0.314554        -0.092156
