19
Iteration:   616charge 0 multiplicity 1
 C         3.131095         2.767523        -3.555600
 C         2.208212         2.364684        -2.470583
 C         2.642792         1.900832        -1.107051
 C         1.401189         1.537434        -0.373403
 C         0.310463         1.098185        -1.407401
 C         0.792020         1.852407        -2.657231
 O         1.123013         3.263710        -2.251979
 C         1.441193         0.639240         0.928903
 O         0.875188         1.033768         1.933199
 H         3.835451         3.505198        -3.092594
 H         3.770548         1.974480        -4.091302
 H         2.577174         3.411354        -4.155575
 H         3.249160         0.956951        -1.164285
 H         3.288528         2.624955        -0.511253
 H         0.923947         2.467252         0.022728
 H         0.332779         0.061362        -1.565887
 H        -0.665893         1.401626        -0.955657
 H         0.115045         1.910034        -3.607004
 H         2.046512        -0.363283         0.983885
