19
Iteration:  2455charge 0 multiplicity 1
 C         3.274253         2.835452        -3.297024
 C         2.218466         2.482692        -2.261626
 C         2.334305         2.542981        -0.801401
 C         1.073554         1.814594        -0.224415
 C         0.467819         0.947250        -1.468129
 C         1.052937         1.644478        -2.657243
 O         0.732655         3.022115        -2.805598
 C         1.586779         0.882717         0.883686
 O         1.125196         0.455242         1.850465
 H         3.882335         3.633830        -3.174967
 H         4.023561         2.074898        -3.402331
 H         2.785289         2.878113        -4.270524
 H         3.220733         1.900998        -0.513958
 H         2.384018         3.621498        -0.390784
 H         0.255816         2.441159         0.011387
 H         0.883790        -0.079843        -1.612175
 H        -0.576926         0.923170        -1.384737
 H         1.200627         1.110281        -3.579231
 H         2.674862         0.668666         0.555356
