19
Iteration:  3936
 C         3.182273         3.371907        -2.896774
 C         2.111699         2.601131        -2.279652
 C         1.901348         2.804649        -0.736987
 C         0.767887         1.805897        -0.333371
 C         0.785080         0.695145        -1.365838
 C         1.452430         1.272394        -2.531801
 O         0.823830         2.543000        -2.958717
 C         1.265044         1.347133         1.022779
 O         1.543294         0.148871         1.289470
 H         3.267752         4.394650        -2.436017
 H         4.164055         2.822810        -2.778066
 H         2.947916         3.651070        -4.052140
 H         2.785181         2.772132        -0.172141
 H         1.624571         3.807708        -0.619415
 H        -0.190459         2.252808        -0.433794
 H         1.495809        -0.141022        -1.078397
 H        -0.265437         0.317336        -1.637537
 H         1.793339         0.711002        -3.371626
 H         1.490226         2.138247         1.757601
