19
Iteration:  1461charge 0 multiplicity 1
 C         3.426413         2.515003        -2.983327
 C         2.070424         2.455751        -2.284695
 C         2.102633         2.419122        -0.666045
 C         0.821405         1.584893        -0.219170
 C         0.051628         1.225722        -1.585261
 C         0.928260         1.683599        -2.729380
 O         1.003186         3.296792        -2.854854
 C         1.588630         0.587868         0.641756
 O         1.764912         0.793497         1.839496
 H         3.866489         3.420593        -3.328149
 H         4.193963         2.011411        -2.355198
 H         3.227081         1.850441        -3.883520
 H         3.031111         1.968266        -0.327509
 H         2.147074         3.410889        -0.383429
 H         0.159694         2.250701         0.345542
 H         0.068715         0.098163        -1.748569
 H        -1.016232         1.571112        -1.559740
 H         0.778949         1.255473        -3.686692
 H         1.967730        -0.311998         0.120912
