19
Iteration:   446charge 0 multiplicity 1
 C         3.215548         2.214922        -3.463657
 C         2.137542         2.314286        -2.376936
 C         2.675322         2.292083        -0.961099
 C         1.326597         1.906501        -0.198342
 C         0.108560         1.575933        -1.113311
 C         0.697251         1.910021        -2.462691
 O         1.094494         3.334866        -2.584092
 C         1.647247         0.714479         0.686991
 O         0.954457         0.356945         1.629968
 H         3.845742         3.098123        -3.205261
 H         3.829342         1.344808        -3.291297
 H         2.924084         2.137146        -4.599831
 H         3.434754         1.599260        -0.714038
 H         2.826623         3.354775        -0.866049
 H         1.115714         2.552720         0.631331
 H        -0.101895         0.575791        -1.137294
 H        -0.777158         2.139171        -0.900949
 H         0.356648         1.521728        -3.395367
 H         2.630619         0.089776         0.450200
