19
Iteration:  3099charge 0 multiplicity 1
 C         3.407156         2.866683        -3.083521
 C         2.168002         2.503276        -2.271261
 C         1.980193         2.845853        -0.781187
 C         0.855929         1.765773        -0.219351
 C         0.309164         0.936787        -1.451948
 C         1.105786         1.505472        -2.701805
 O         0.893913         2.880805        -2.925490
 C         1.649268         0.865530         0.764391
 O         1.435943         0.449166         1.867986
 H         3.824567         3.869694        -3.254446
 H         4.280147         2.229138        -2.797536
 H         3.183606         2.504162        -4.080896
 H         3.024184         2.874530        -0.290659
 H         1.600439         3.816887        -0.756729
 H         0.176748         2.248184         0.395830
 H         0.409511        -0.180120        -1.329493
 H        -0.740962         0.907552        -1.588953
 H         1.161503         0.938865        -3.660066
 H         2.668737         0.644554         0.255147
