19
Iteration:  2394
 C         3.353160         2.758837        -3.135953
 C         2.085874         2.517220        -2.333949
 C         2.146011         2.786683        -0.790409
 C         1.124432         1.777863        -0.110264
 C         0.376374         1.194013        -1.415618
 C         0.972212         1.556650        -2.704446
 O         0.893888         2.953686        -2.939620
 C         1.661431         0.640053         0.706588
 O         1.253044         0.432299         1.854390
 H         3.455304         3.903178        -3.356447
 H         4.120088         2.272282        -2.488681
 H         3.378091         2.216391        -4.148760
 H         3.200615         2.661861        -0.496695
 H         1.930708         3.779629        -0.519341
 H         0.418053         2.317599         0.581793
 H         0.352416         0.097800        -1.447488
 H        -0.706222         1.490955        -1.111360
 H         0.893731         0.837311        -3.533717
 H         2.541824         0.079065         0.322150
