19
Iteration:  3522
 C         3.441448         2.804841        -2.731471
 C         2.024578         2.551509        -2.152016
 C         1.675156         2.744408        -0.708452
 C         0.867949         1.572696        -0.348432
 C         0.462967         0.826168        -1.659655
 C         1.125740         1.493820        -2.719422
 O         0.845961         2.919770        -2.954875
 C         1.546568         0.650209         0.664849
 O         1.798456         1.004442         1.768670
 H         3.645388         3.894938        -2.793244
 H         4.203045         2.299304        -2.063768
 H         3.588178         2.358630        -3.831519
 H         2.574775         2.813667        -0.201232
 H         1.065863         3.709242        -0.728509
 H        -0.128498         1.931322         0.161359
 H         0.705105        -0.303846        -1.717671
 H        -0.645573         0.742896        -1.652252
 H         1.453759         0.935931        -3.676404
 H         2.078590        -0.266759         0.364926
