19
Iteration:  1554charge 0 multiplicity 1
 C         3.439075         2.621382        -3.034875
 C         2.099200         2.468680        -2.248208
 C         2.031024         2.744011        -0.716354
 C         0.888859         1.794778        -0.123500
 C         0.129112         1.378988        -1.355368
 C         0.971541         1.591755        -2.626683
 O         1.001587         2.976252        -3.114615
 C         1.516952         0.635120         0.607245
 O         1.712274         0.408403         1.805346
 H         4.270156         3.236218        -2.556063
 H         3.961202         1.657628        -2.962009
 H         3.165923         2.848323        -4.053532
 H         2.959828         2.538079        -0.176251
 H         1.795222         3.831392        -0.622449
 H         0.172923         2.201223         0.598687
 H        -0.337357         0.415498        -1.328122
 H        -0.632536         2.134735        -1.346495
 H         1.037962         0.879602        -3.487387
 H         1.862975        -0.105950        -0.120389
