19
Iteration:  2762
 C         3.456008         2.833550        -2.997014
 C         2.125159         2.519506        -2.333316
 C         1.950240         2.656683        -0.755598
 C         0.877365         1.636312        -0.189345
 C         0.297169         1.003913        -1.499445
 C         1.048257         1.548515        -2.730291
 O         0.925087         2.966880        -2.937192
 C         1.603467         0.675352         0.691107
 O         1.533691         0.712114         1.896419
 H         3.451542         3.912024        -3.166994
 H         4.259621         2.485433        -2.311860
 H         3.442665         2.380260        -4.015764
 H         2.948452         2.501273        -0.378807
 H         1.460528         3.687216        -0.577169
 H         0.113122         2.270897         0.444589
 H         0.504600        -0.110234        -1.520703
 H        -0.830418         1.135537        -1.577064
 H         1.116721         0.885877        -3.707175
 H         2.479318         0.116646         0.262413
