19
Iteration:  1283
 C         3.185138         2.920887        -3.270258
 C         2.208727         2.475464        -2.270399
 C         2.534625         1.783096        -0.975733
 C         1.157383         1.319724        -0.442963
 C         0.352945         0.819395        -1.712317
 C         0.920088         1.929804        -2.747868
 O         0.930533         3.210144        -2.215544
 C         1.368996         0.695625         0.788797
 O         1.224034         1.336246         1.934491
 H         3.660621         3.876208        -3.124510
 H         3.983229         2.018325        -3.435411
 H         2.796750         2.962278        -4.316612
 H         3.079483         0.903558        -1.128218
 H         3.005135         2.372392        -0.119217
 H         0.731487         2.233623         0.045133
 H         0.536466        -0.182705        -2.222320
 H        -0.735129         0.851047        -1.679353
 H         0.657202         1.966441        -3.850720
 H         1.647997        -0.424735         0.956887
