19
Iteration:  3539charge 0 multiplicity 1
 C         3.363410         2.789924        -2.662415
 C         2.004328         2.592391        -2.254179
 C         1.756812         2.879860        -0.718806
 C         0.811581         1.498974        -0.298152
 C         0.405789         0.762448        -1.581523
 C         1.199723         1.551741        -2.781994
 O         0.864790         2.900419        -3.063056
 C         1.592695         0.628141         0.664851
 O         1.813443         0.970459         1.795642
 H         3.666343         3.838048        -2.762976
 H         4.028846         2.337501        -1.990943
 H         3.475592         2.450030        -3.661778
 H         2.687937         2.904183         0.006129
 H         1.159093         3.734523        -0.583320
 H         0.072082         1.846009         0.351017
 H         0.835294        -0.176392        -1.400655
 H        -0.678177         0.802055        -1.769201
 H         1.416058         0.910217        -3.556905
 H         1.460797        -0.397147         0.252673
