19
Iteration:   202charge 0 multiplicity 1
 C         3.411309         2.242970        -3.163323
 C         2.111654         2.279895        -2.286995
 C         2.466292         2.068735        -0.841407
 C         1.045251         1.983891        -0.256301
 C         0.051991         1.363480        -1.358797
 C         0.737517         1.952147        -2.601250
 O         1.113083         3.320684        -2.475354
 C         0.973248         1.121808         1.089958
 O         1.857044         0.293073         1.092039
 H         4.273628         2.898926        -2.774045
 H         3.823341         1.181270        -3.114628
 H         3.277089         2.654212        -4.157655
 H         2.919820         0.999135        -0.643163
 H         3.072739         2.946923        -0.578574
 H         0.703444         3.019488        -0.078774
 H        -0.122555         0.279723        -1.341612
 H        -0.959244         1.761259        -1.194415
 H         0.407474         1.608556        -3.691027
 H         0.111407         1.293489         1.746421
