19
Iteration:  2380charge 0 multiplicity 1
 C         3.315433         2.725779        -3.101236
 C         2.081452         2.509678        -2.300422
 C         2.113289         2.716903        -0.825588
 C         1.058519         1.821601        -0.181423
 C         0.252940         1.148331        -1.372126
 C         1.094962         1.568167        -2.647609
 O         0.906663         3.040737        -3.025812
 C         1.707292         0.721919         0.808515
 O         1.330617         0.355082         1.853696
 H         3.506444         3.776983        -3.302157
 H         4.308117         2.434091        -2.697828
 H         3.093074         2.190343        -4.096180
 H         3.070868         2.444719        -0.383212
 H         1.998068         3.776050        -0.607438
 H         0.362498         2.328848         0.404827
 H        -0.031902         0.091429        -1.154902
 H        -0.648049         1.593716        -1.648980
 H         1.214126         0.985477        -3.517782
 H         2.416513         0.104024         0.228095
