19
Iteration:  2822
 C         3.477925         2.780965        -2.859654
 C         2.090223         2.463752        -2.202702
 C         1.858097         2.777913        -0.778828
 C         0.852378         1.792115        -0.233135
 C         0.235545         0.993497        -1.448584
 C         1.127841         1.500563        -2.621992
 O         0.880569         2.909493        -3.073837
 C         1.504450         0.713735         0.614976
 O         1.754196         0.621313         1.791049
 H         3.660429         3.854649        -2.684511
 H         4.377177         2.311211        -2.509492
 H         3.539860         2.563736        -3.908547
 H         2.664859         2.824979         0.018350
 H         1.488899         3.844602        -0.646711
 H         0.192922         2.365607         0.260902
 H         0.259941        -0.091650        -1.317641
 H        -0.752175         1.273397        -1.743172
 H         1.266392         0.896828        -3.425301
 H         1.971096         0.001774        -0.134788
