19
Iteration:  1171
 C         3.321180         2.540303        -3.312356
 C         2.153485         2.443823        -2.360555
 C         2.437457         2.394965        -0.892717
 C         1.196156         1.663477        -0.229113
 C         0.228897         1.214891        -1.432794
 C         0.821457         1.808416        -2.692339
 O         0.969418         3.220331        -2.636059
 C         1.666320         0.631355         0.777297
 O         1.091483         0.664014         1.904918
 H         3.904476         3.443704        -3.092024
 H         3.946511         1.657158        -3.452599
 H         2.880335         2.745464        -4.266983
 H         3.264508         1.836304        -0.581293
 H         2.490500         3.431153        -0.556973
 H         0.471164         2.292066         0.286490
 H         0.248610         0.127023        -1.469486
 H        -0.797554         1.330598        -1.204290
 H         0.908119         1.391852        -3.717297
 H         2.376898        -0.145619         0.507536
