19
Iteration:  2138
 C         3.462073         2.605591        -2.967433
 C         2.135463         2.466561        -2.279729
 C         1.991796         2.870845        -0.758580
 C         0.987246         1.817502        -0.191040
 C         0.121347         1.187427        -1.334394
 C         0.965269         1.535299        -2.644409
 O         0.908489         2.953996        -2.952198
 C         1.780090         0.673282         0.550533
 O         1.467421         0.467747         1.725760
 H         3.867274         3.629476        -2.724439
 H         4.150745         1.738641        -2.587364
 H         3.632695         2.675827        -4.012196
 H         2.941433         2.757895        -0.218242
 H         1.739674         3.928823        -0.555292
 H         0.319511         2.252110         0.595068
 H        -0.257766         0.121704        -1.355531
 H        -0.836987         1.640242        -1.396796
 H         0.958234         0.947704        -3.674690
 H         2.726516         0.287545         0.077719
