19
Iteration:  3605
 C         3.398991         3.080408        -2.772948
 C         2.108270         2.500614        -2.093012
 C         1.750679         2.727103        -0.709031
 C         0.737846         1.601748        -0.324708
 C         0.244404         0.890482        -1.525099
 C         1.306880         1.361117        -2.653652
 O         0.947870         2.691664        -2.994333
 C         1.339503         0.658033         0.602840
 O         1.977977         0.988616         1.594306
 H         3.483331         4.096419        -2.386397
 H         4.320607         2.729406        -2.483981
 H         3.209299         3.147070        -3.784249
 H         2.593453         2.770908         0.091715
 H         1.423606         3.717712        -0.564116
 H        -0.023616         1.922624         0.283573
 H         0.258653        -0.156191        -1.326096
 H        -0.702999         1.388715        -1.763192
 H         1.644587         0.793726        -3.458145
 H         0.938855        -0.518492         0.513793
