19
Iteration:  4778
 C         3.412792         2.864975        -2.405116
 C         1.952561         2.614349        -2.055614
 C         1.339173         3.050731        -0.783005
 C         0.627840         1.829235        -0.267113
 C         0.512987         0.873342        -1.394747
 C         1.360228         1.370122        -2.529241
 O         0.908448         2.520753        -3.131953
 C         1.586401         1.352917         0.817579
 O         2.020532         0.218144         0.953887
 H         3.696665         3.913943        -2.671770
 H         4.023485         2.510175        -1.493169
 H         3.761416         2.240674        -3.360791
 H         2.272916         3.281041        -0.173601
 H         0.706976         3.847171        -1.008385
 H        -0.327004         2.227408         0.160312
 H         0.866181        -0.049235        -1.174041
 H        -0.537491         0.770790        -1.607439
 H         1.899984         0.522933        -3.054954
 H         1.860083         2.031213         1.628616
