19
Iteration:  3711charge 0 multiplicity 1
 C         3.359262         3.016101        -2.756560
 C         2.052378         2.599674        -2.071309
 C         1.777182         2.819504        -0.651102
 C         0.679753         1.736253        -0.342469
 C         0.695831         0.673084        -1.476329
 C         1.308600         1.417961        -2.635309
 O         0.832982         2.727455        -2.945466
 C         0.947019         0.899935         0.908780
 O         2.109998         0.733915         1.172056
 H         3.759808         4.086074        -2.690232
 H         4.179596         2.277621        -2.350990
 H         3.373226         2.722474        -3.765059
 H         2.561114         2.502176        -0.099611
 H         1.325570         3.781273        -0.419043
 H        -0.325568         2.314029        -0.223139
 H         1.300127        -0.224254        -1.241905
 H        -0.272657         0.266499        -1.611899
 H         1.732238         0.823789        -3.406305
 H         0.033359         0.729719         1.480062
