19
Iteration:  4908charge 0 multiplicity 1
 C         3.481294         2.847423        -2.299797
 C         2.040690         2.495674        -2.041508
 C         1.334362         3.068074        -0.802273
 C         0.511058         1.881297        -0.247241
 C         0.214099         0.858033        -1.332979
 C         1.331286         1.243850        -2.360414
 O         1.038028         2.521877        -3.058013
 C         1.486563         1.286032         0.784345
 O         2.279329         0.391327         0.614554
 H         3.409207         3.844557        -2.694379
 H         4.029502         2.850585        -1.405618
 H         3.903822         2.139645        -3.030178
 H         1.924381         3.712594        -0.157233
 H         0.765850         3.841399        -1.264160
 H        -0.274233         2.297378         0.429710
 H         0.435682        -0.184546        -1.060529
 H        -0.717503         0.896054        -1.914659
 H         1.849573         0.509368        -2.938636
 H         1.410658         1.902613         1.711124
