19
Iteration:  1526charge 0 multiplicity 1
 C         3.454936         2.582940        -2.944746
 C         2.105263         2.519013        -2.201485
 C         2.122825         2.767191        -0.792857
 C         0.887444         1.852436        -0.219681
 C         0.135650         1.304571        -1.414269
 C         1.014045         1.583684        -2.566732
 O         0.913649         2.987402        -2.956790
 C         1.423683         0.587459         0.560140
 O         1.750974         0.509333         1.723436
 H         4.254433         3.133047        -2.616166
 H         3.841243         1.532815        -2.859555
 H         3.140825         2.642260        -4.023739
 H         3.045126         2.398241        -0.323434
 H         2.064110         3.855302        -0.658874
 H         0.240313         2.210847         0.600806
 H         0.023245         0.185485        -1.272093
 H        -0.881397         1.738300        -1.608214
 H         1.010494         0.988621        -3.450808
 H         1.488203        -0.381340        -0.071169
