19
Iteration:  3788
 C         3.207380         3.357660        -2.918191
 C         2.096635         2.649283        -2.262046
 C         2.004013         2.634362        -0.784150
 C         0.768414         1.711414        -0.305182
 C         0.723627         0.739833        -1.491639
 C         1.408728         1.331990        -2.734668
 O         0.834386         2.655484        -2.984985
 C         0.948571         1.078169         1.066207
 O         1.848137         0.428178         1.540817
 H         3.142385         4.453268        -2.672868
 H         4.296401         3.164766        -2.558104
 H         3.090919         3.072613        -3.918154
 H         2.881637         2.223490        -0.356702
 H         1.964238         3.632731        -0.216371
 H        -0.152563         2.421194        -0.091546
 H         1.285411        -0.180789        -1.248205
 H        -0.239382         0.407891        -1.739269
 H         1.521211         0.706087        -3.587059
 H        -0.008932         1.319818         1.664420
