19
Iteration:  1296
 C         3.234744         2.892120        -3.257261
 C         2.161001         2.471445        -2.267174
 C         2.527545         1.770920        -0.979143
 C         1.013537         1.383604        -0.479311
 C         0.374155         0.828297        -1.770225
 C         0.857997         1.848278        -2.706586
 O         0.982806         3.246577        -2.196801
 C         1.392210         0.689921         0.880956
 O         1.272788         1.330384         1.876810
 H         3.725861         3.742715        -2.774035
 H         4.119319         2.132237        -3.371756
 H         2.655550         3.246664        -4.191415
 H         3.174979         0.937406        -1.286347
 H         3.118274         2.389897        -0.289256
 H         0.447860         2.341441        -0.379587
 H         0.881355        -0.112294        -1.983314
 H        -0.721903         0.732840        -1.656596
 H         0.479994         1.777227        -3.722347
 H         1.864864        -0.389056         0.778799
