19
Iteration:  3802
 C         3.238285         3.328405        -2.993900
 C         2.063247         2.624413        -2.279196
 C         2.005810         2.614771        -0.686470
 C         0.830385         1.730620        -0.374792
 C         0.816611         0.605370        -1.513398
 C         1.351677         1.441857        -2.654234
 O         0.787446         2.720518        -2.924249
 C         0.902424         1.137560         1.072283
 O         1.816335         0.418990         1.536737
 H         3.031884         4.431568        -3.045985
 H         4.125456         3.025724        -2.433547
 H         3.498933         3.074150        -4.124869
 H         2.839334         2.026284        -0.513838
 H         1.935542         3.590281        -0.271891
 H        -0.111562         2.242156        -0.537733
 H         1.561029        -0.207672        -1.220959
 H        -0.225065         0.124691        -1.682187
 H         1.759248         0.908601        -3.554003
 H         0.007870         1.353722         1.762293
