19
Iteration:  4656
 C         3.173760         3.306318        -2.917272
 C         2.104366         2.592071        -2.166387
 C         1.755832         2.969201        -0.776173
 C         0.807685         1.839350        -0.227890
 C         0.796476         0.724515        -1.320044
 C         1.423580         1.310140        -2.542066
 O         0.933475         2.581816        -3.034094
 C         1.345020         1.257934         1.033139
 O         1.526957         0.077146         1.162422
 H         2.798908         4.347448        -2.853999
 H         4.124955         3.043759        -2.481217
 H         3.329710         2.776528        -3.981213
 H         2.680628         3.048251        -0.248548
 H         1.120589         3.767554        -0.701451
 H        -0.196446         2.123368         0.111677
 H         1.241585        -0.115205        -0.902991
 H        -0.189733         0.414067        -1.571099
 H         1.798010         0.698390        -3.362691
 H         1.627160         1.938171         1.940917
