19
Iteration:   406
 C         3.171743         2.080191        -3.406298
 C         2.185543         2.404229        -2.420648
 C         2.537644         2.455114        -0.875709
 C         1.224912         1.893690        -0.085938
 C         0.102356         1.667339        -1.163367
 C         0.765595         1.961420        -2.531786
 O         1.111890         3.398574        -2.775957
 C         1.534791         0.584436         0.641884
 O         1.190024         0.226684         1.773543
 H         4.062068         2.581179        -3.163718
 H         3.372936         0.993688        -3.245960
 H         2.935911         2.221584        -4.453521
 H         3.549387         1.901684        -0.650962
 H         2.914465         3.459919        -0.497048
 H         0.795135         2.688487         0.549020
 H        -0.206038         0.540655        -1.173209
 H        -0.797849         2.287045        -0.906289
 H         0.575376         1.325372        -3.365800
 H         2.269531         0.061711         0.083225
