19
Iteration:  2567charge 0 multiplicity 1
 C         2.970587         3.219587        -3.598585
 C         2.197251         2.490649        -2.426328
 C         2.690683         2.160475        -0.972208
 C         1.395527         1.589134        -0.218098
 C         0.807282         0.786406        -1.453523
 C         1.054813         1.673693        -2.725683
 O         0.807138         2.996675        -2.440587
 C         1.487928         0.758739         1.069246
 O         0.571314         0.839964         1.884592
 H         2.996444         4.283570        -3.332798
 H         4.050158         3.020956        -3.558732
 H         2.454161         2.933254        -4.525776
 H         3.692157         1.531005        -0.966187
 H         2.876662         3.139914        -0.320747
 H         0.678499         2.467404        -0.010872
 H         1.541278        -0.042795        -1.562958
 H        -0.236923         0.319060        -1.364191
 H         0.831789         1.345732        -3.796333
 H         2.358066         0.089872         1.287413
