19
Iteration:   842
 C         3.430710         2.194144        -2.969530
 C         2.143126         2.433996        -2.242903
 C         2.200832         2.603435        -0.733546
 C         0.859972         1.912730        -0.143919
 C        -0.041671         1.596381        -1.294043
 C         0.877161         1.771812        -2.524351
 O         1.022550         3.138036        -2.966746
 C         1.518534         0.602420         0.421121
 O         1.743286         0.454130         1.626885
 H         4.008698         3.161617        -3.043069
 H         4.120655         1.515718        -2.389244
 H         3.222555         1.456071        -3.877922
 H         3.000175         1.864460        -0.444412
 H         2.503581         3.602372        -0.260601
 H         0.447474         2.578498         0.676628
 H        -0.427987         0.582876        -1.310583
 H        -0.967810         2.162839        -1.335322
 H         0.800458         1.007313        -3.323819
 H         1.761356        -0.161412        -0.386033
