19
Iteration:  1746
 C         3.353885         2.698901        -3.333220
 C         2.136889         2.485090        -2.297201
 C         2.308311         2.709957        -0.788045
 C         1.108995         1.898307        -0.143445
 C         0.377632         1.100932        -1.331366
 C         1.002822         1.558948        -2.601807
 O         0.868615         3.034298        -2.811910
 C         1.559337         0.732699         0.715101
 O         1.153276         0.391955         1.791899
 H         3.833052         3.634903        -3.111781
 H         4.151468         1.961301        -3.441067
 H         2.916350         3.110141        -4.201500
 H         3.301116         2.180571        -0.597455
 H         2.323413         3.793171        -0.677773
 H         0.328919         2.394990         0.437590
 H         0.341274         0.063707        -1.227574
 H        -0.699841         1.361152        -1.173656
 H         1.123577         0.857298        -3.549764
 H         2.420352         0.213594         0.260706
