19
Iteration:   679charge 0 multiplicity 1
 C         3.257446         2.543810        -3.501144
 C         2.201129         2.485918        -2.397063
 C         2.520783         2.001035        -0.921428
 C         1.170949         1.637240        -0.304339
 C         0.234856         1.268162        -1.463351
 C         0.904759         1.946875        -2.697050
 O         0.978676         3.333635        -2.495219
 C         1.357819         0.577536         0.868368
 O         1.232912         0.820536         2.042062
 H         3.706293         3.578592        -3.535181
 H         4.122288         1.770150        -3.411063
 H         2.810137         2.238921        -4.425063
 H         3.094885         1.061089        -1.019593
 H         3.048976         2.904686        -0.453400
 H         0.865068         2.535627         0.306905
 H         0.393222         0.102479        -1.504575
 H        -0.885688         1.348030        -1.432270
 H         0.640372         1.611959        -3.705807
 H         1.617790        -0.504915         0.478789
