19
Iteration:  1418charge 0 multiplicity 1
 C         3.361608         2.589692        -3.167942
 C         2.167330         2.449727        -2.317809
 C         2.328698         2.472438        -0.831147
 C         0.944607         1.743782        -0.266419
 C         0.266241         1.080224        -1.467764
 C         0.907148         1.757431        -2.731167
 O         0.934141         3.171849        -2.693598
 C         1.270381         0.588299         0.669452
 O         1.622090         0.721954         1.903878
 H         3.698832         3.716626        -3.241248
 H         4.224957         2.083656        -2.639911
 H         3.306626         2.334954        -4.298794
 H         3.243436         2.067529        -0.375843
 H         2.228972         3.436771        -0.427963
 H         0.380877         2.470581         0.360731
 H         0.451915        -0.021405        -1.346901
 H        -0.840029         1.283174        -1.572344
 H         0.813807         1.284782        -3.721216
 H         1.220294        -0.510741         0.291532
