19
Iteration:  3692charge 0 multiplicity 1
 C         3.402586         2.885650        -2.677379
 C         2.015551         2.590175        -2.165454
 C         1.676354         2.775573        -0.684015
 C         0.623765         1.692713        -0.354862
 C         0.665293         0.697801        -1.542290
 C         1.289694         1.426872        -2.667834
 O         0.833192         2.829529        -2.937096
 C         1.066523         0.981289         0.911997
 O         2.173518         0.738779         1.293217
 H         3.516728         4.019734        -2.589406
 H         4.211944         2.439734        -2.039687
 H         3.587130         2.528197        -3.676602
 H         2.655084         2.771797         0.050651
 H         1.298511         3.793523        -0.572272
 H        -0.401268         2.049679        -0.225820
 H         1.352844        -0.214609        -1.395001
 H        -0.282770         0.148030        -1.816439
 H         1.518539         1.019141        -3.604258
 H         0.154836         0.366539         1.338056
