19
Iteration:  2830charge 0 multiplicity 1
 C         3.479036         2.779451        -2.809692
 C         2.121735         2.428178        -2.189396
 C         1.877438         2.813594        -0.767239
 C         0.778973         1.829490        -0.229142
 C         0.228089         1.023955        -1.471895
 C         1.043238         1.430552        -2.695449
 O         0.909011         2.879750        -3.032817
 C         1.540449         0.751376         0.588113
 O         1.776838         0.610211         1.775017
 H         3.611998         3.836282        -2.456539
 H         4.404524         2.315750        -2.393406
 H         3.433205         2.751239        -3.854924
 H         2.851646         2.731937        -0.314959
 H         1.452989         3.933199        -0.738766
 H         0.048878         2.407384         0.432969
 H         0.482518        -0.009460        -1.275832
 H        -0.875567         1.272398        -1.651557
 H         1.337145         0.853108        -3.550598
 H         2.034688        -0.004157        -0.150336
