19
Iteration:  2441charge 0 multiplicity 1
 C         3.276009         2.755858        -3.232257
 C         2.121509         2.549007        -2.332211
 C         2.304958         2.614951        -0.767864
 C         1.072267         1.828552        -0.281544
 C         0.466054         1.036218        -1.419907
 C         1.060280         1.576288        -2.696541
 O         0.805158         2.972176        -2.736578
 C         1.617731         0.821068         0.765903
 O         1.147301         0.464496         1.825943
 H         3.577683         3.845028        -3.087950
 H         3.988352         1.954110        -2.977763
 H         3.056081         2.742679        -4.272965
 H         3.312311         2.325257        -0.395067
 H         2.211880         3.715483        -0.448186
 H         0.405560         2.544624         0.289762
 H         0.900103         0.026900        -1.204915
 H        -0.694025         0.971489        -1.516216
 H         0.967458         0.977068        -3.648982
 H         2.571125         0.337274         0.441616
