19
Iteration:   294
 C         3.359862         2.024119        -3.241877
 C         2.113679         2.312613        -2.329612
 C         2.393054         2.338295        -0.787895
 C         1.059764         1.904109        -0.043808
 C        -0.058033         1.803643        -1.344467
 C         0.655329         2.022563        -2.632686
 O         1.235201         3.363548        -2.729802
 C         1.138944         0.494207         0.652790
 O         1.857413         0.375555         1.619896
 H         3.972084         2.908419        -3.218961
 H         3.966658         1.271134        -2.854251
 H         3.100420         1.990693        -4.334939
 H         3.236337         1.713785        -0.239303
 H         2.628889         3.408772        -0.452719
 H         0.657259         2.704064         0.560197
 H        -0.370247         0.645198        -1.459283
 H        -1.071435         2.245041        -1.174012
 H         0.237707         1.613003        -3.469716
 H         0.809838        -0.495798         0.162919
