19
Iteration:  2168charge 0 multiplicity 1
 C         3.363835         2.651240        -3.015925
 C         2.159829         2.411934        -2.221156
 C         1.968085         2.763053        -0.772214
 C         0.945785         1.808605        -0.144095
 C         0.068642         1.304322        -1.326340
 C         1.070096         1.570247        -2.619093
 O         0.996461         2.932456        -3.044912
 C         1.682197         0.696521         0.598890
 O         1.559440         0.382132         1.742859
 H         3.835669         3.613596        -2.697057
 H         4.258945         2.026715        -2.572660
 H         3.132412         2.552760        -4.085873
 H         2.869618         2.919454        -0.207411
 H         1.523456         3.837185        -0.828251
 H         0.261320         2.522539         0.481723
 H        -0.302065         0.269142        -1.262017
 H        -0.834660         1.921975        -1.537661
 H         1.171412         0.852148        -3.466452
 H         2.670423         0.576539         0.033238
