19
Iteration:  1245
 C         3.211569         2.983351        -3.346984
 C         2.204742         2.396222        -2.439423
 C         2.561527         1.942372        -1.026083
 C         1.282711         1.528032        -0.352282
 C         0.411979         0.894860        -1.539434
 C         0.823541         1.843802        -2.681742
 O         1.014580         3.218884        -2.373157
 C         1.195517         0.622966         0.839113
 O         1.167404         1.081493         2.031399
 H         3.652513         3.982379        -3.106528
 H         4.016979         2.293119        -3.449922
 H         2.878804         3.036905        -4.448957
 H         3.243710         1.018184        -1.135687
 H         3.118338         2.735115        -0.556079
 H         0.760155         2.481173        -0.222993
 H         0.703721        -0.178911        -1.658474
 H        -0.691020         0.801715        -1.253242
 H         0.617695         1.580524        -3.732496
 H         1.059902        -0.457571         0.653807
