19
Iteration:   523
 C         3.067642         2.487863        -3.645614
 C         2.170252         2.385172        -2.464803
 C         2.740655         2.067891        -1.048262
 C         1.471534         1.719890        -0.227088
 C         0.338109         1.260584        -1.283669
 C         0.796418         1.877706        -2.549424
 O         1.061030         3.343978        -2.302672
 C         1.605644         0.726922         0.946002
 O         0.662737         0.676882         1.713104
 H         3.716529         3.395839        -3.587900
 H         3.760448         1.620217        -3.696395
 H         2.466070         2.686667        -4.664725
 H         3.512715         1.222178        -1.102188
 H         3.391057         2.865294        -0.627526
 H         1.138439         2.568902         0.351091
 H         0.441816         0.180618        -1.639579
 H        -0.670573         1.487492        -0.966845
 H         0.307738         1.740179        -3.473954
 H         2.627816         0.215424         1.166296
