19
Iteration:  3778
 C         3.202722         3.386032        -2.871643
 C         2.085188         2.540340        -2.264263
 C         1.998477         2.660745        -0.706776
 C         0.817612         1.751004        -0.293798
 C         0.657600         0.762340        -1.512517
 C         1.422653         1.357580        -2.716114
 O         0.857386         2.626803        -3.019518
 C         0.921649         1.053512         1.074525
 O         1.894544         0.434894         1.511168
 H         3.055159         4.497317        -2.691886
 H         4.227708         2.911641        -2.686787
 H         3.126583         3.392428        -3.983138
 H         2.888606         2.265559        -0.431192
 H         1.814449         3.718362        -0.611059
 H        -0.179395         2.313697        -0.386183
 H         1.053834        -0.205026        -1.124800
 H        -0.405323         0.619897        -1.685592
 H         1.705806         0.731404        -3.540790
 H         0.005471         1.219074         1.779043
