19
Iteration:  1437charge 0 multiplicity 1
 C         3.444589         2.507274        -3.040741
 C         2.064838         2.481211        -2.296204
 C         2.171714         2.453567        -0.729487
 C         1.009770         1.630174        -0.275355
 C         0.181657         1.171853        -1.544673
 C         0.901318         1.741435        -2.681315
 O         0.898592         3.224850        -2.780328
 C         1.425530         0.576746         0.635755
 O         1.675006         0.780198         1.867513
 H         3.789147         3.428074        -3.334155
 H         4.293687         2.106237        -2.445686
 H         3.361495         1.958648        -4.029445
 H         3.103977         1.950803        -0.547510
 H         2.319769         3.498972        -0.421718
 H         0.272038         2.311287         0.200254
 H         0.254437         0.063452        -1.740288
 H        -0.853343         1.484482        -1.359128
 H         0.877920         1.451910        -3.718315
 H         1.590155        -0.451814         0.223826
