19
Iteration:   929charge 0 multiplicity 1
 C         3.419754         2.133298        -2.881948
 C         2.123367         2.489886        -2.218856
 C         2.177316         2.871667        -0.818170
 C         1.057213         1.920269        -0.039846
 C        -0.024648         1.688355        -1.316000
 C         0.813756         1.725573        -2.520352
 O         0.976943         3.027050        -3.090131
 C         1.617393         0.607761         0.474847
 O         1.598213         0.212297         1.611947
 H         4.150421         2.938575        -2.681643
 H         3.878102         1.326630        -2.463182
 H         3.226867         1.930075        -4.014466
 H         3.189743         2.606495        -0.428593
 H         2.197947         3.913115        -0.396671
 H         0.576496         2.571807         0.761901
 H        -0.571980         0.782652        -1.346425
 H        -0.714140         2.520477        -1.408393
 H         0.869045         0.935321        -3.299799
 H         2.363935         0.009949        -0.209580
