19
Iteration:  2985charge 0 multiplicity 1
 C         3.457283         2.809378        -2.877905
 C         2.107292         2.446132        -2.166941
 C         1.793672         2.819321        -0.712881
 C         0.763000         1.759929        -0.120323
 C         0.127516         1.094339        -1.453308
 C         1.115100         1.494550        -2.577944
 O         1.039281         2.761739        -3.072519
 C         1.710158         0.815559         0.511470
 O         1.714735         0.571671         1.680395
 H         3.476866         3.900184        -2.812263
 H         4.287703         2.279876        -2.411503
 H         3.263635         2.375551        -3.903772
 H         2.537771         2.976825        -0.048019
 H         1.354969         3.892056        -0.667232
 H         0.060562         2.182497         0.591096
 H        -0.280893         0.063305        -1.423524
 H        -0.788553         1.676214        -1.770113
 H         1.332112         0.793337        -3.353018
 H         2.395475         0.256758        -0.130995
