19
Iteration:  4005charge 0 multiplicity 1
 C         3.265862         3.139929        -2.925381
 C         2.029079         2.718980        -2.230513
 C         1.673729         3.068328        -0.799745
 C         0.879483         1.788015        -0.302085
 C         0.856815         0.772462        -1.407441
 C         1.370963         1.367062        -2.675929
 O         0.831893         2.640939        -3.114364
 C         1.360097         1.152096         1.216919
 O         1.544333        -0.020771         1.428032
 H         3.327624         4.206022        -3.328855
 H         4.199967         3.235781        -2.177049
 H         3.659948         2.503692        -3.753836
 H         2.532633         3.470221        -0.206405
 H         0.994153         3.995274        -0.667511
 H        -0.104540         2.149603        -0.075439
 H         1.523633        -0.088986        -1.174642
 H        -0.150542         0.453150        -1.621011
 H         1.809825         0.651934        -3.420172
 H         1.530063         1.993957         1.904736
