19
Iteration:  4540charge 0 multiplicity 1
 C         2.947732         3.624577        -3.069043
 C         2.149651         2.713594        -2.261809
 C         2.307129         2.552007        -0.734966
 C         1.090635         1.672565        -0.408544
 C         1.015429         0.573872        -1.471473
 C         1.478210         1.337098        -2.660393
 O         0.721876         2.556097        -2.792340
 C         0.962742         1.309084         1.054275
 O         1.267259         0.261435         1.538122
 H         3.084147         4.535322        -2.530445
 H         3.850008         3.045498        -3.318229
 H         2.617815         3.843217        -3.947552
 H         3.194707         1.882949        -0.768104
 H         2.285590         3.578220        -0.231294
 H         0.183064         2.364728        -0.563389
 H         1.659693        -0.278729        -1.159688
 H        -0.002586         0.191316        -1.794258
 H         1.768566         0.693596        -3.577738
 H         0.683447         2.251788         1.608833
