19
Iteration:  1902charge 0 multiplicity 1
 C         3.177539         3.195528        -3.355667
 C         2.161515         2.485374        -2.489576
 C         2.569869         1.907960        -1.049880
 C         1.277549         1.508802        -0.371541
 C         0.697384         0.671547        -1.558518
 C         0.992363         1.747309        -2.708788
 O         0.760220         3.161618        -2.337717
 C         1.400581         0.763367         0.966747
 O         0.928619         1.070235         1.996027
 H         3.576739         4.100261        -2.753501
 H         3.935319         2.459264        -3.549533
 H         2.711689         3.562422        -4.310802
 H         3.293818         0.991670        -0.971124
 H         3.021846         2.708425        -0.464031
 H         0.572874         2.272997        -0.181607
 H         1.160464        -0.258470        -1.829105
 H        -0.463030         0.521174        -1.536414
 H         0.653530         1.475690        -3.824817
 H         1.751941        -0.266766         0.752206
