19
Iteration:  2378
 C         3.330721         2.714568        -3.115937
 C         2.077442         2.522297        -2.287566
 C         2.115554         2.694689        -0.836499
 C         1.035948         1.828557        -0.191702
 C         0.238666         1.147229        -1.372389
 C         1.116169         1.573058        -2.629306
 O         0.906381         3.039147        -3.031429
 C         1.705665         0.731263         0.803691
 O         1.343350         0.346776         1.855069
 H         3.426962         3.746802        -3.273547
 H         4.290376         2.418816        -2.703308
 H         3.119603         2.261660        -4.066068
 H         3.085546         2.481193        -0.344743
 H         2.000044         3.817225        -0.549163
 H         0.326874         2.374818         0.397373
 H        -0.106487         0.110032        -1.165972
 H        -0.709867         1.554767        -1.580300
 H         1.245288         0.994852        -3.546567
 H         2.458104         0.131173         0.241091
