19
Iteration:  4671charge 0 multiplicity 1
 C         3.224983         3.322758        -2.859651
 C         2.118876         2.583594        -2.190002
 C         1.696602         2.987932        -0.768256
 C         0.776447         1.873773        -0.234137
 C         0.615103         0.772199        -1.375160
 C         1.507642         1.273598        -2.522814
 O         0.893735         2.476278        -3.007936
 C         1.412009         1.245900         1.064772
 O         1.590783         0.066169         1.125890
 H         3.049761         4.382321        -2.845830
 H         4.287048         3.340958        -2.478478
 H         3.205469         3.103391        -3.885570
 H         2.561278         3.148996        -0.115052
 H         1.420769         4.126792        -0.868318
 H        -0.210624         2.336856        -0.010423
 H         1.067296        -0.302181        -1.026832
 H        -0.510911         0.578655        -1.677345
 H         1.987355         0.487331        -3.208210
 H         1.751687         1.971091         1.855440
