19
Iteration:  2655
 C         3.231208         3.069093        -3.351896
 C         2.153231         2.518168        -2.392900
 C         2.386526         2.437141        -0.893653
 C         1.151406         1.642567        -0.302387
 C         0.618980         0.759691        -1.536941
 C         1.048828         1.619917        -2.697963
 O         0.810171         3.015068        -2.676611
 C         1.466708         0.724730         0.929455
 O         0.993538         0.754705         2.063944
 H         3.720761         3.989903        -3.002312
 H         4.005914         2.335410        -3.630353
 H         2.723087         3.301999        -4.267527
 H         3.386743         2.030942        -0.757712
 H         2.708881         3.461157        -0.478208
 H         0.379093         2.451160        -0.035850
 H         1.216742        -0.131221        -1.621867
 H        -0.461685         0.364727        -1.440338
 H         0.933212         1.081055        -3.666202
 H         2.399543         0.160526         0.708642
