19
Iteration:  2313charge 0 multiplicity 1
 C         3.455828         2.626191        -2.938686
 C         2.090614         2.548045        -2.292615
 C         2.012884         2.919386        -0.789113
 C         1.012353         1.882342        -0.199398
 C         0.244674         1.142813        -1.317243
 C         0.994458         1.520552        -2.613569
 O         0.883054         2.929558        -2.928231
 C         1.741087         0.658053         0.503346
 O         1.427017         0.446386         1.719623
 H         4.093002         3.465400        -2.670834
 H         4.099645         1.742464        -2.568997
 H         3.347664         2.485519        -4.034261
 H         3.000901         2.840581        -0.368262
 H         1.660913         3.984723        -0.734440
 H         0.361404         2.353128         0.538009
 H         0.313338         0.027385        -1.153296
 H        -0.764644         1.421634        -1.263431
 H         0.757136         0.907396        -3.507866
 H         2.122778        -0.199948        -0.106554
