19
Iteration:  1027charge 0 multiplicity 1
 C         3.421385         2.287042        -3.112371
 C         2.115450         2.511695        -2.347038
 C         2.250392         2.785835        -0.708442
 C         1.170772         2.031469        -0.039652
 C         0.105008         1.601105        -1.176953
 C         0.919635         1.642061        -2.460869
 O         0.930128         2.969569        -3.041960
 C         1.612488         0.718402         0.545514
 O         1.298334         0.167379         1.551824
 H         3.919985         3.304919        -3.217336
 H         4.127799         1.649714        -2.646279
 H         3.141494         1.807219        -4.201453
 H         3.307859         2.346216        -0.521303
 H         2.415098         3.850978        -0.410655
 H         0.626801         2.584907         0.809699
 H        -0.301603         0.590071        -1.029890
 H        -0.750943         2.310713        -1.198069
 H         0.820478         0.771915        -3.152982
 H         2.465415         0.266068         0.026691
