19
Iteration:  2757
 C         3.466092         2.847684        -2.986206
 C         2.137072         2.487502        -2.360432
 C         1.923907         2.670221        -0.757523
 C         0.874407         1.704743        -0.217682
 C         0.275833         0.959651        -1.514280
 C         1.031758         1.513505        -2.743880
 O         0.916816         2.987337        -2.918742
 C         1.611873         0.671446         0.693676
 O         1.528085         0.703097         1.919249
 H         3.518048         3.960397        -3.038367
 H         4.354129         2.549846        -2.428079
 H         3.450266         2.353227        -3.971605
 H         2.962950         2.431817        -0.394315
 H         1.761753         3.691264        -0.481219
 H         0.190666         2.167578         0.392222
 H         0.599919        -0.074367        -1.428167
 H        -0.772214         1.075317        -1.569093
 H         1.026420         0.996506        -3.633236
 H         2.512081         0.159077         0.211102
