19
Iteration:  2612
 C         3.139239         3.128771        -3.306225
 C         2.127498         2.501144        -2.366799
 C         2.629647         2.243359        -1.012001
 C         1.312395         1.621924        -0.387000
 C         0.704036         0.806780        -1.480930
 C         1.021137         1.613431        -2.714493
 O         0.664566         2.927317        -2.421560
 C         1.585359         0.838839         0.951168
 O         0.747564         0.891789         1.792201
 H         3.255750         4.232995        -3.057702
 H         4.164939         2.712140        -3.100533
 H         2.763012         2.859141        -4.274901
 H         3.540431         1.469757        -0.788092
 H         3.094168         3.079324        -0.326954
 H         0.601329         2.456632         0.027353
 H         1.387147        -0.059051        -1.532962
 H        -0.397584         0.369796        -1.401779
 H         0.844814         1.203833        -3.758962
 H         2.463712         0.141261         1.121856
