19
Iteration:   931
 C         3.407529         2.137253        -2.884415
 C         2.131605         2.501237        -2.222534
 C         2.193782         2.875872        -0.810241
 C         1.062394         1.927281        -0.048452
 C        -0.034003         1.685639        -1.324977
 C         0.813086         1.724593        -2.539004
 O         0.971568         3.018193        -3.086306
 C         1.621221         0.624210         0.477950
 O         1.597072         0.198684         1.618060
 H         4.129065         2.900796        -2.654114
 H         3.885555         1.266389        -2.418645
 H         3.208370         1.923336        -3.889749
 H         3.127537         2.581841        -0.406624
 H         2.233413         3.942375        -0.435687
 H         0.655129         2.509717         0.793110
 H        -0.598081         0.771012        -1.370387
 H        -0.736280         2.503708        -1.361394
 H         0.872905         0.947864        -3.350052
 H         2.355691         0.076727        -0.177527
