19
Iteration:   560charge 0 multiplicity 1
 C         3.128122         2.697824        -3.575257
 C         2.129136         2.391540        -2.471855
 C         2.715526         1.799117        -1.190862
 C         1.420624         1.687316        -0.261790
 C         0.393547         1.079118        -1.350503
 C         0.749697         1.894577        -2.550564
 O         1.128741         3.331353        -2.278808
 C         1.525993         0.881608         0.939488
 O         0.722570         0.804661         1.848121
 H         3.890310         3.203031        -2.968431
 H         3.579350         1.791358        -4.117813
 H         2.724519         3.293779        -4.328587
 H         2.863442         0.756436        -1.226445
 H         3.481597         2.558247        -0.895347
 H         0.917590         2.645517         0.027184
 H         0.753733         0.129619        -1.591233
 H        -0.607338         0.827892        -0.977239
 H         0.086751         1.800693        -3.460362
 H         2.498145         0.279525         1.020573
