19
Iteration:  3050
 C         3.398940         2.675540        -2.828061
 C         2.008807         2.637104        -2.288541
 C         1.885318         2.856077        -0.730389
 C         0.987808         1.757887        -0.222540
 C         0.318819         1.040029        -1.478803
 C         1.077322         1.521613        -2.633332
 O         0.851973         2.821239        -3.048716
 C         1.802874         0.787694         0.586855
 O         1.490289         0.559958         1.770719
 H         3.852408         3.694100        -2.634223
 H         4.019307         2.070052        -2.145372
 H         3.631641         2.497243        -3.965188
 H         2.807509         2.929586        -0.280026
 H         1.326448         3.863934        -0.600626
 H         0.284137         2.167654         0.606884
 H         0.293376        -0.069892        -1.517799
 H        -0.826491         1.135632        -1.532773
 H         1.361720         0.761433        -3.364795
 H         2.589191         0.150618         0.040217
