19
Iteration:  2631
 C         3.153212         3.063427        -3.284637
 C         2.065805         2.546086        -2.365677
 C         2.452586         2.246761        -0.908423
 C         1.240733         1.694442        -0.299238
 C         0.755804         0.712369        -1.488001
 C         1.070395         1.590554        -2.714847
 O         0.743838         2.992802        -2.509947
 C         1.523669         0.887963         0.849127
 O         0.881236         0.836220         1.847319
 H         3.418929         4.022749        -2.930425
 H         4.028736         2.441977        -3.182485
 H         2.901036         3.136298        -4.357719
 H         3.270158         1.575699        -0.927500
 H         3.094107         3.074046        -0.432323
 H         0.496303         2.498850        -0.066326
 H         1.191823        -0.276285        -1.489414
 H        -0.322953         0.553016        -1.332968
 H         0.869742         1.158165        -3.740657
 H         2.453380         0.274616         0.648980
