19
Iteration:   566charge 0 multiplicity 1
 C         3.127445         2.725747        -3.548278
 C         2.160957         2.387314        -2.459896
 C         2.654787         1.733437        -1.192715
 C         1.410434         1.676790        -0.233819
 C         0.405376         1.083552        -1.371981
 C         0.753384         1.943818        -2.612812
 O         1.085486         3.325026        -2.287553
 C         1.572791         0.875015         0.988706
 O         0.728192         0.837349         1.855760
 H         4.041698         3.218207        -3.149054
 H         3.426094         1.783376        -4.020408
 H         2.610576         3.447996        -4.338796
 H         3.007001         0.630104        -1.354547
 H         3.462547         2.420219        -0.845652
 H         0.996389         2.654353        -0.029431
 H         0.888162        -0.008599        -1.478674
 H        -0.652437         0.954395        -1.101608
 H         0.313197         1.691094        -3.559753
 H         2.423750         0.141187         1.013776
