19
Iteration:  2102charge 0 multiplicity 1
 C         3.376145         2.518246        -2.995200
 C         2.045207         2.565508        -2.291184
 C         2.081872         2.866873        -0.715481
 C         0.904204         1.927439        -0.165627
 C         0.354666         1.093396        -1.394021
 C         1.004771         1.607283        -2.743204
 O         0.886007         3.005997        -2.981222
 C         1.611297         0.697516         0.594726
 O         1.516760         0.390113         1.805341
 H         3.816035         3.488216        -2.820270
 H         4.096272         1.861352        -2.448557
 H         3.216013         2.214684        -4.070192
 H         2.927267         2.477011        -0.299483
 H         2.021178         3.955780        -0.453382
 H         0.164294         2.438484         0.557334
 H         0.519839         0.069709        -1.149724
 H        -0.712324         1.349099        -1.407226
 H         1.166567         0.975181        -3.564429
 H         2.375855         0.130344         0.013784
