19
Iteration:  2232charge 0 multiplicity 1
 C         3.479507         2.571847        -2.935086
 C         2.093644         2.475715        -2.225163
 C         1.934147         2.871444        -0.806872
 C         0.980519         1.870397        -0.204050
 C         0.146064         1.213464        -1.362773
 C         0.975363         1.532961        -2.605032
 O         0.952517         2.928679        -2.874606
 C         1.704793         0.711477         0.494852
 O         1.533899         0.440865         1.659359
 H         3.807504         3.592047        -3.181196
 H         4.207657         2.111146        -2.308509
 H         3.586660         2.054463        -3.881860
 H         2.978312         2.896053        -0.355490
 H         1.574611         3.956193        -0.675712
 H         0.300688         2.355916         0.574088
 H         0.006135         0.158367        -1.142202
 H        -0.938768         1.552541        -1.297359
 H         0.976406         0.860164        -3.458545
 H         2.528114         0.189686        -0.075359
