19
Iteration:  2275charge 0 multiplicity 1
 C         3.372228         2.568460        -2.937022
 C         2.077265         2.574733        -2.277959
 C         1.953489         2.864204        -0.777070
 C         0.948224         1.796122        -0.182286
 C         0.119463         1.248735        -1.419671
 C         0.999211         1.564429        -2.689808
 O         1.008136         2.950328        -3.041340
 C         1.766413         0.766482         0.659572
 O         1.566923         0.316637         1.837763
 H         3.795131         3.573275        -3.004148
 H         3.878798         1.738255        -2.584410
 H         3.136503         2.376673        -3.982777
 H         2.851770         2.618564        -0.088971
 H         1.768060         3.961603        -0.541261
 H         0.239071         2.388011         0.446791
 H        -0.005423         0.168311        -1.400314
 H        -0.917319         1.701091        -1.700353
 H         1.117097         0.832385        -3.499642
 H         2.682959         0.377774         0.130805
