19
Iteration:  2697
 C         3.294538         2.898447        -3.222812
 C         2.119622         2.617514        -2.294688
 C         2.247236         2.652007        -0.843880
 C         1.088400         1.599886        -0.264868
 C         0.456260         0.835993        -1.526602
 C         1.116843         1.598929        -2.622510
 O         0.820147         2.939155        -2.816446
 C         1.519696         0.688018         0.767782
 O         1.214175         0.759147         1.964118
 H         3.831872         3.768774        -2.904855
 H         3.976090         2.044800        -3.320333
 H         3.028732         3.237192        -4.233032
 H         3.199935         2.298071        -0.501170
 H         2.119398         3.644620        -0.131112
 H         0.221957         2.187270         0.235711
 H         0.625264        -0.239357        -1.589618
 H        -0.681439         0.887999        -1.515796
 H         1.343972         1.053141        -3.632280
 H         2.239459        -0.126201         0.360519
