19
Iteration:  1768
 C         3.238600         2.690627        -3.306418
 C         2.159374         2.521697        -2.341199
 C         2.310725         2.617288        -0.830968
 C         1.172056         1.744706        -0.249317
 C         0.434760         1.055802        -1.435390
 C         1.081430         1.627116        -2.637857
 O         0.844970         3.093130        -2.632376
 C         1.628071         0.732059         0.793050
 O         1.073022         0.536379         1.794212
 H         3.935676         3.520837        -3.265548
 H         3.812366         1.785465        -3.005958
 H         2.917588         2.759298        -4.322672
 H         3.383665         2.312020        -0.578281
 H         1.968619         3.625781        -0.595102
 H         0.454971         2.265741         0.402931
 H         0.600150         0.027654        -1.491319
 H        -0.687347         1.071058        -1.492066
 H         0.659831         1.173775        -3.649436
 H         2.532497         0.132899         0.546873
