19
Iteration:  3118charge 0 multiplicity 1
 C         3.287012         2.806331        -3.076166
 C         2.075609         2.550111        -2.336266
 C         2.003094         2.796907        -0.775573
 C         1.015101         1.802696        -0.202192
 C         0.474001         1.010516        -1.415888
 C         1.197856         1.472710        -2.583169
 O         0.824531         2.881395        -2.951223
 C         1.684258         0.755869         0.722647
 O         1.297285         0.520017         1.819661
 H         3.556090         3.870143        -3.016023
 H         4.214444         2.379700        -2.642159
 H         3.286720         2.680674        -4.291814
 H         2.960095         2.580088        -0.445618
 H         1.707468         3.860793        -0.477184
 H         0.165153         2.315443         0.228922
 H         0.692771        -0.132977        -1.317055
 H        -0.657892         1.190705        -1.447932
 H         1.410407         0.880991        -3.556158
 H         2.440266         0.216794         0.102440
