19
Iteration:    10
 C         3.238014         2.782511        -3.320942
 C         2.208616         2.442067        -2.381089
 C         2.530650         2.218426        -0.857562
 C         1.195784         1.637865        -0.257876
 C         0.512292         1.023213        -1.501341
 C         0.972836         1.751496        -2.712783
 O         0.971482         3.272723        -2.544258
 C         1.428213         0.664512         0.792586
 O         0.876087         0.718894         1.907932
 H         3.770686         3.764940        -2.990418
 H         3.912910         1.937234        -3.509693
 H         2.770404         2.899195        -4.250707
 H         3.284535         1.568833        -0.654361
 H         2.889118         3.143279        -0.412816
 H         0.549818         2.401313         0.163300
 H         0.399989         0.039603        -1.464418
 H        -0.523264         1.412878        -1.448762
 H         0.768718         1.378610        -3.838713
 H         2.141472        -0.028135         0.503703
