19
Iteration:  1747charge 0 multiplicity 1
 C         3.352598         2.693851        -3.336320
 C         2.141601         2.491453        -2.291893
 C         2.308647         2.712251        -0.786689
 C         1.113179         1.892047        -0.152149
 C         0.381091         1.098101        -1.340791
 C         0.995196         1.564498        -2.608069
 O         0.866433         3.030782        -2.802235
 C         1.561539         0.728110         0.726850
 O         1.149831         0.399209         1.788976
 H         3.836337         3.658685        -3.122304
 H         4.131197         1.956147        -3.443839
 H         2.918490         3.099324        -4.192373
 H         3.314297         2.180980        -0.561541
 H         2.313162         3.784397        -0.688449
 H         0.346355         2.400084         0.402887
 H         0.338533         0.031402        -1.213918
 H        -0.708320         1.366871        -1.154775
 H         1.140820         0.876027        -3.552002
 H         2.426874         0.211458         0.245021
