19
Iteration:  4081
 C         3.158405         3.337608        -2.937924
 C         2.105193         2.653957        -2.226175
 C         1.900031         2.835922        -0.739909
 C         0.838714         1.804721        -0.296279
 C         0.762378         0.737516        -1.316746
 C         1.460293         1.277633        -2.576148
 O         0.866580         2.516388        -2.968558
 C         1.155682         1.273013         1.053173
 O         1.590265         0.150063         1.202863
 H         3.012254         4.466367        -2.771651
 H         4.209816         3.052914        -2.447373
 H         3.273468         3.324926        -4.027065
 H         2.780334         2.649382        -0.202730
 H         1.567526         3.858863        -0.481507
 H        -0.036316         2.409765        -0.226293
 H         1.243493        -0.262619        -1.027251
 H        -0.327426         0.650678        -1.483726
 H         1.823805         0.639513        -3.410867
 H         1.155451         2.076937         1.815101
