19
Iteration:  2436charge 0 multiplicity 1
 C         3.277222         2.734797        -3.200357
 C         2.089696         2.568710        -2.353371
 C         2.264675         2.669214        -0.810876
 C         1.095817         1.846460        -0.217356
 C         0.477931         1.011102        -1.387762
 C         1.042353         1.545469        -2.694718
 O         0.845213         2.975045        -2.722181
 C         1.612290         0.766649         0.754067
 O         1.153290         0.490348         1.795016
 H         3.555250         3.822849        -3.077454
 H         4.108948         2.040580        -2.925743
 H         3.161595         2.712998        -4.338225
 H         3.234642         2.280176        -0.484075
 H         2.181551         3.691107        -0.553381
 H         0.317605         2.431798         0.286079
 H         0.792492        -0.031033        -1.241076
 H        -0.599027         1.141217        -1.507110
 H         0.979565         1.095883        -3.679758
 H         2.533990         0.269609         0.318398
