19
Iteration:  1148charge 0 multiplicity 1
 C         3.344776         2.427771        -3.284337
 C         2.144128         2.411154        -2.417639
 C         2.379120         2.519350        -0.912578
 C         1.133914         1.833459        -0.175954
 C         0.338876         1.175376        -1.378257
 C         0.814936         1.804193        -2.608221
 O         0.978410         3.284375        -2.695265
 C         1.591582         0.708886         0.716627
 O         1.163186         0.451465         1.887791
 H         4.044817         3.224143        -3.012371
 H         3.741914         1.501742        -2.985874
 H         3.224741         2.365411        -4.391966
 H         3.219321         2.102950        -0.424292
 H         2.252904         3.567685        -0.783994
 H         0.357710         2.480803         0.265767
 H         0.328500         0.077688        -1.423629
 H        -0.741551         1.274884        -1.247977
 H         0.440095         1.480275        -3.607276
 H         2.469148         0.211227         0.296625
