19
Iteration:  4755
 C         3.449092         2.886511        -2.527508
 C         2.021240         2.638620        -2.167779
 C         1.336669         3.158117        -0.850256
 C         0.704943         1.843178        -0.246657
 C         0.484138         0.699891        -1.396441
 C         1.408201         1.338878        -2.516454
 O         0.900920         2.637957        -3.087556
 C         1.564930         1.301519         0.934132
 O         1.935820         0.153497         1.031754
 H         3.480948         3.992776        -2.696673
 H         3.963420         2.695467        -1.558824
 H         3.953746         2.404332        -3.524768
 H         2.063238         3.606971        -0.054092
 H         0.534167         3.750956        -1.201306
 H        -0.249182         2.198103         0.297126
 H         0.828692        -0.259660        -1.133420
 H        -0.556492         0.659549        -1.598149
 H         1.698085         0.498295        -3.159822
 H         1.858851         1.975082         1.765551
