19
Iteration:  1508
 C         3.443349         2.469332        -2.978307
 C         2.123516         2.445635        -2.262038
 C         2.064251         2.678046        -0.696078
 C         0.925277         1.808778        -0.207723
 C         0.128877         1.202153        -1.450316
 C         0.950689         1.637759        -2.656915
 O         0.952438         3.065617        -2.817862
 C         1.437122         0.629736         0.508922
 O         1.758625         0.636573         1.678824
 H         3.939619         3.447041        -2.472876
 H         4.212926         1.791186        -2.632585
 H         3.334366         2.621221        -4.028707
 H         3.057051         2.464244        -0.263791
 H         1.808276         3.678050        -0.426341
 H         0.322073         2.441945         0.484365
 H        -0.019474         0.110037        -1.291251
 H        -0.868933         1.691756        -1.556908
 H         0.983196         0.936068        -3.520251
 H         1.563563        -0.256342        -0.131768
