19
Iteration:  2520
 C         3.148668         3.064110        -3.417906
 C         2.103173         2.520736        -2.394043
 C         2.531364         2.351852        -0.909160
 C         1.358132         1.703397        -0.272194
 C         0.739315         0.807264        -1.407238
 C         1.020438         1.579146        -2.649438
 O         0.735142         2.992865        -2.447799
 C         1.597923         0.795425         0.882616
 O         0.712686         0.771582         1.731364
 H         3.687085         3.858432        -3.037443
 H         3.827346         2.261834        -3.571865
 H         2.610192         3.263372        -4.335135
 H         3.419945         1.705740        -0.845534
 H         2.865661         3.405762        -0.531563
 H         0.644432         2.400720         0.073152
 H         1.264148        -0.192400        -1.464307
 H        -0.245963         0.571384        -1.181390
 H         0.803406         1.089764        -3.581300
 H         2.516689         0.162342         0.990388
