19
Iteration:  2474
 C         3.244853         2.897406        -3.366159
 C         2.092493         2.594375        -2.438881
 C         2.303884         2.483781        -0.874043
 C         1.101427         1.723985        -0.229737
 C         0.584186         0.898428        -1.422310
 C         1.065100         1.592463        -2.716423
 O         0.852363         3.085774        -2.761890
 C         1.643464         0.865825         1.009352
 O         0.990230         0.484849         1.909020
 H         3.897359         3.652889        -2.827027
 H         3.914645         2.025991        -3.525239
 H         2.789549         3.222637        -4.280008
 H         3.165670         1.802330        -0.777804
 H         2.578339         3.438885        -0.314336
 H         0.425446         2.411821         0.302537
 H         0.882745        -0.175706        -1.264701
 H        -0.535271         0.795610        -1.384242
 H         0.824445         1.065196        -3.655420
 H         2.708121         0.571610         0.867817
