19
Iteration:   665charge 0 multiplicity 1
 C         3.186494         2.572065        -3.499571
 C         2.183967         2.474929        -2.404225
 C         2.592220         1.965169        -1.047587
 C         1.200059         1.725357        -0.224580
 C         0.396748         1.129970        -1.502123
 C         0.853994         1.881861        -2.674459
 O         0.997936         3.368504        -2.403575
 C         1.289455         0.657021         0.842361
 O         1.165000         0.826816         2.044911
 H         3.748070         3.468164        -3.630916
 H         3.809638         1.846885        -3.138698
 H         2.807236         2.444581        -4.555790
 H         3.160559         1.043466        -1.206083
 H         3.271867         2.447754        -0.383592
 H         0.705373         2.650512         0.063079
 H         0.464931         0.051834        -1.757746
 H        -0.573746         1.498586        -1.301589
 H         0.586088         1.642472        -3.635420
 H         1.547875        -0.454888         0.467820
