19
Iteration:  1147charge 0 multiplicity 1
 C         3.347945         2.419961        -3.276748
 C         2.143048         2.419236        -2.424114
 C         2.386248         2.522953        -0.915296
 C         1.125457         1.838754        -0.170638
 C         0.334047         1.176951        -1.374503
 C         0.813672         1.808646        -2.601394
 O         0.976331         3.282366        -2.700046
 C         1.589291         0.711213         0.722034
 O         1.168112         0.443992         1.879076
 H         4.052573         3.219021        -3.033199
 H         3.737318         1.519405        -2.999699
 H         3.228563         2.350799        -4.410682
 H         3.221318         2.112315        -0.388146
 H         2.277512         3.563555        -0.801161
 H         0.332723         2.475021         0.239362
 H         0.353378         0.058175        -1.404852
 H        -0.774353         1.255906        -1.229966
 H         0.494425         1.469125        -3.598643
 H         2.459806         0.205181         0.291479
