19
Iteration:  4468charge 0 multiplicity 1
 C         3.088844         3.273868        -3.108396
 C         2.024739         2.739112        -2.251767
 C         1.985993         2.909159        -0.759349
 C         1.100155         1.707525        -0.303028
 C         1.187497         0.582892        -1.447751
 C         1.486881         1.407619        -2.628896
 O         0.693525         2.666225        -2.814829
 C         1.331536         1.252646         1.106264
 O         1.037391         0.102014         1.422030
 H         3.008805         4.401089        -3.180793
 H         4.120549         3.024921        -2.800974
 H         2.989270         2.827464        -4.183605
 H         3.036374         2.857952        -0.427706
 H         1.416068         3.734869        -0.407489
 H         0.035966         1.984550        -0.271198
 H         2.047977        -0.155171        -1.375553
 H         0.255643         0.017574        -1.486599
 H         1.701557         1.127581        -3.652928
 H         1.782954         1.996787         1.809745
