19
Iteration:  3216
 C         3.141519         3.023682        -3.359687
 C         2.098413         2.632433        -2.352873
 C         2.351443         2.481443        -0.885357
 C         1.277935         1.653698        -0.339088
 C         0.800237         0.730962        -1.489943
 C         1.130172         1.506697        -2.747617
 O         0.712770         2.992511        -2.565472
 C         1.627296         1.008086         1.061136
 O         0.791510         0.561618         1.817986
 H         3.470871         4.022039        -3.314702
 H         4.096324         2.570137        -3.227624
 H         2.795026         2.977432        -4.461916
 H         3.177826         1.766218        -0.874954
 H         2.578762         3.437750        -0.240957
 H         0.442784         2.322306        -0.076997
 H         1.299752        -0.220669        -1.376397
 H        -0.263459         0.425847        -1.428169
 H         1.024877         1.099525        -3.804339
 H         2.732031         0.902019         1.171237
