19
Iteration:  4449
 C         3.132279         3.243062        -3.087134
 C         2.035037         2.747537        -2.270767
 C         1.903577         2.997345        -0.745208
 C         1.130696         1.730077        -0.291363
 C         1.145638         0.714291        -1.391851
 C         1.446484         1.440806        -2.652301
 O         0.652021         2.622060        -2.902517
 C         1.441455         1.125491         1.032034
 O         1.020728         0.052253         1.475404
 H         3.156623         4.186334        -3.466046
 H         3.968178         3.023443        -2.528485
 H         3.388969         2.604935        -3.943914
 H         2.918462         2.949377        -0.264359
 H         1.296920         3.988939        -0.514431
 H         0.081278         2.079568        -0.130282
 H         2.068574         0.051715        -1.178874
 H         0.168722         0.182505        -1.464141
 H         1.917004         0.981194        -3.524724
 H         2.001988         1.761630         1.745652
