19
Iteration:   405charge 0 multiplicity 1
 C         3.175531         2.078063        -3.405458
 C         2.195206         2.401622        -2.410276
 C         2.535624         2.467322        -0.876148
 C         1.229500         1.895640        -0.086522
 C         0.099278         1.661233        -1.165075
 C         0.748469         1.966887        -2.528626
 O         1.116126         3.395667        -2.784813
 C         1.522806         0.580027         0.642068
 O         1.197110         0.221696         1.779166
 H         4.064424         2.581983        -3.149745
 H         3.376748         1.004783        -3.278210
 H         2.922850         2.212378        -4.492437
 H         3.555416         1.887035        -0.668842
 H         2.911771         3.484662        -0.486296
 H         0.799510         2.679793         0.541370
 H        -0.177261         0.568729        -1.163917
 H        -0.794607         2.274940        -0.945353
 H         0.583182         1.364478        -3.321423
 H         2.241865         0.075736         0.051015
