19
Iteration:  4932charge 0 multiplicity 1
 C         3.494142         2.817502        -2.258124
 C         1.998448         2.498563        -2.043705
 C         1.187181         3.099465        -0.759206
 C         0.542372         1.835942        -0.199340
 C         0.242167         0.923938        -1.427675
 C         1.249569         1.257294        -2.476858
 O         1.073755         2.511603        -3.161742
 C         1.622662         1.347969         0.828930
 O         2.286544         0.339477         0.733761
 H         3.607798         3.817834        -2.672924
 H         4.155198         2.572383        -1.400653
 H         3.664813         2.104186        -2.982783
 H         1.899921         3.645675        -0.048796
 H         0.586603         3.863380        -1.010518
 H        -0.342778         2.009031         0.474979
 H         0.370121        -0.071755        -1.294115
 H        -0.742210         1.068985        -1.881942
 H         1.878950         0.490408        -2.971212
 H         1.725382         2.100553         1.648015
