19
Iteration:    54charge 0 multiplicity 1
 C         3.302010         2.674216        -3.548425
 C         2.206284         2.481418        -2.430169
 C         2.606565         2.392902        -0.918778
 C         1.332251         1.868742        -0.139459
 C         0.521984         1.112317        -1.200385
 C         0.963426         1.716822        -2.544542
 O         0.923129         3.238131        -2.591486
 C         1.508383         0.821532         0.941773
 O         0.579396         0.297093         1.617824
 H         3.963114         3.538734        -3.175054
 H         3.900768         1.774256        -3.738173
 H         2.912772         2.852362        -4.534652
 H         3.417761         1.772699        -0.808097
 H         3.006364         3.338405        -0.573329
 H         0.740501         2.732874         0.158674
 H         0.613998         0.102475        -1.172000
 H        -0.514132         1.398377        -1.006683
 H         0.536913         1.324726        -3.560342
 H         2.639106         0.398988         1.106638
