19
Iteration:  1598charge 0 multiplicity 1
 C         3.455660         2.479489        -2.898126
 C         2.109662         2.428103        -2.292589
 C         2.045021         2.778323        -0.789067
 C         0.940481         1.845458        -0.145948
 C         0.171278         1.289810        -1.326204
 C         0.922664         1.588247        -2.618177
 O         0.927974         3.005577        -2.894340
 C         1.723867         0.699442         0.509397
 O         1.532728         0.456847         1.613403
 H         3.978103         3.450192        -2.741436
 H         4.217377         1.829865        -2.468626
 H         3.224366         2.112331        -3.894763
 H         2.983154         2.643600        -0.274733
 H         1.672909         3.769951        -0.507344
 H         0.360817         2.490803         0.507461
 H        -0.190736         0.294651        -1.183844
 H        -0.682906         1.932878        -1.471775
 H         0.638399         1.111368        -3.561017
 H         2.583440         0.266203        -0.157280
