19
Iteration:  2857
 C         3.469741         2.743199        -2.720460
 C         2.086207         2.450882        -2.184133
 C         1.825667         2.758424        -0.728206
 C         0.803308         1.745321        -0.269004
 C         0.159036         1.051728        -1.465604
 C         1.065172         1.417540        -2.609962
 O         0.928656         2.870754        -3.028037
 C         1.693805         0.802378         0.480157
 O         1.733833         0.706737         1.683483
 H         3.768370         3.707911        -2.290569
 H         4.128041         2.001847        -2.294592
 H         3.454049         2.928217        -3.869035
 H         2.878740         2.674015        -0.226733
 H         1.392028         3.724839        -0.671147
 H         0.179098         2.225170         0.466406
 H        -0.004941        -0.043375        -1.300371
 H        -0.802707         1.490420        -1.655076
 H         1.220497         0.754686        -3.535473
 H         2.534760         0.272716        -0.123631
