19
Iteration:  2803
 C         3.419561         2.773123        -2.976607
 C         2.065215         2.642700        -2.234934
 C         1.867720         2.847008        -0.729751
 C         0.842338         1.645234        -0.195024
 C         0.268459         1.105459        -1.513317
 C         1.124430         1.483234        -2.676657
 O         0.941592         2.853390        -2.999935
 C         1.591560         0.584143         0.635315
 O         1.650031         0.694114         1.842930
 H         3.834764         3.780190        -3.017278
 H         4.225945         2.305132        -2.367030
 H         3.378521         2.176739        -3.985552
 H         2.900397         2.836272        -0.254624
 H         1.475569         3.755434        -0.495117
 H         0.095247         2.015017         0.544801
 H         0.363058        -0.010833        -1.442302
 H        -0.711698         1.505822        -1.648387
 H         1.465213         0.825539        -3.558168
 H         1.936064        -0.304670         0.055287
