19
Iteration:  1693
 C         3.359040         2.636970        -3.104597
 C         2.103383         2.472925        -2.346704
 C         2.189953         2.690362        -0.805411
 C         1.066046         1.901073        -0.135920
 C         0.214262         1.322432        -1.300976
 C         1.026027         1.563979        -2.572718
 O         0.848998         2.960407        -2.946715
 C         1.795294         0.700145         0.697690
 O         1.263918         0.353339         1.673205
 H         3.721261         3.707769        -2.810050
 H         4.139146         2.084729        -2.554611
 H         3.406140         2.478175        -4.164099
 H         3.230963         2.531370        -0.327567
 H         2.062930         3.759049        -0.870324
 H         0.455107         2.363321         0.619730
 H        -0.153768         0.232609        -1.112125
 H        -0.745428         1.977806        -1.406252
 H         0.870294         0.833379        -3.457059
 H         2.726706         0.160515         0.305530
