19
Iteration:  1595charge 0 multiplicity 1
 C         3.445275         2.499177        -2.911965
 C         2.119525         2.414344        -2.290563
 C         2.046603         2.792233        -0.765042
 C         0.941171         1.814034        -0.164113
 C         0.168175         1.291983        -1.320361
 C         0.905322         1.589468        -2.625887
 O         0.944180         3.006816        -2.899103
 C         1.724609         0.703521         0.502738
 O         1.534801         0.462550         1.627950
 H         4.007426         3.511852        -2.661109
 H         4.195788         1.773592        -2.527216
 H         3.284020         2.160948        -3.915619
 H         3.033375         2.702807        -0.260143
 H         1.679890         3.756589        -0.561632
 H         0.334568         2.436262         0.480830
 H        -0.313609         0.248227        -1.107732
 H        -0.680539         2.061325        -1.490999
 H         0.617393         0.989254        -3.539209
 H         2.550390         0.199793        -0.153272
