19
Iteration:  1861charge 0 multiplicity 1
 C         3.035755         3.130448        -3.358699
 C         2.200258         2.430253        -2.341697
 C         2.628971         2.096000        -0.916419
 C         1.346453         1.522623        -0.353621
 C         0.486213         0.911883        -1.507285
 C         1.081947         1.640785        -2.731337
 O         0.835518         3.036012        -2.410290
 C         1.415102         0.646654         0.850278
 O         0.948341         1.038501         1.857524
 H         3.272675         4.115768        -2.969194
 H         4.014338         2.723495        -3.479362
 H         2.543574         3.493347        -4.280127
 H         3.367379         1.256381        -0.919144
 H         2.926538         3.040332        -0.415241
 H         0.806480         2.429996        -0.037446
 H         0.512958        -0.204524        -1.560371
 H        -0.528525         1.041982        -1.250306
 H         0.914423         1.401460        -3.687487
 H         1.855376        -0.410867         0.796630
