19
Iteration:  1772charge 0 multiplicity 1
 C         3.259874         2.660677        -3.310644
 C         2.117205         2.543651        -2.330038
 C         2.309856         2.596236        -0.846766
 C         1.167998         1.710018        -0.232066
 C         0.469713         1.038080        -1.462530
 C         1.059309         1.612789        -2.649438
 O         0.842042         3.141945        -2.611122
 C         1.642993         0.720309         0.769519
 O         1.048253         0.566255         1.819290
 H         3.880623         3.622756        -3.253400
 H         3.903994         1.841252        -3.073939
 H         2.905052         2.736222        -4.339966
 H         3.352013         2.272152        -0.621959
 H         2.105805         3.665462        -0.693644
 H         0.424473         2.197728         0.368039
 H         0.658765        -0.120423        -1.488740
 H        -0.644679         1.076392        -1.439755
 H         0.778130         1.207541        -3.578715
 H         2.630504         0.207736         0.577932
