19
Iteration:  4772
 C         3.438095         2.891840        -2.417349
 C         1.960418         2.594210        -2.087675
 C         1.345593         3.093456        -0.785510
 C         0.650148         1.811067        -0.217993
 C         0.542509         0.885427        -1.408984
 C         1.337559         1.320760        -2.553772
 O         0.886268         2.533705        -3.101541
 C         1.576229         1.332020         0.849283
 O         1.988633         0.216946         0.964658
 H         3.801176         3.863392        -2.719891
 H         4.105268         2.460880        -1.692217
 H         3.740777         2.220816        -3.153391
 H         2.206534         3.451864        -0.222296
 H         0.628920         3.927524        -1.160354
 H        -0.334661         2.072476         0.140732
 H         0.859004        -0.221266        -1.068132
 H        -0.506063         0.733202        -1.809710
 H         1.956325         0.816442        -3.289817
 H         1.926430         2.104658         1.622695
