19
Iteration:  4586charge 0 multiplicity 1
 C         3.136186         3.374321        -3.013827
 C         2.070178         2.695601        -2.265667
 C         2.044487         2.769756        -0.728735
 C         0.966615         1.563658        -0.396321
 C         1.090507         0.516951        -1.475076
 C         1.316277         1.446980        -2.699723
 O         0.762708         2.733367        -2.852714
 C         1.100875         1.282566         1.032138
 O         1.379598         0.203052         1.581726
 H         2.967335         4.467373        -2.897244
 H         4.134307         2.948764        -2.777421
 H         2.986136         3.092386        -3.985792
 H         2.980509         2.373595        -0.289569
 H         1.774141         3.787079        -0.542842
 H         0.096678         2.214109        -0.627774
 H         1.955189        -0.099419        -1.430840
 H         0.254139        -0.167571        -1.561262
 H         1.691783         1.004066        -3.639007
 H         0.750720         2.184795         1.679583
