19
Iteration:  4677
 C         3.248284         3.359511        -2.860147
 C         2.113853         2.611871        -2.199757
 C         1.724475         3.006795        -0.742713
 C         0.751492         1.907144        -0.279776
 C         0.582724         0.787715        -1.387762
 C         1.497254         1.227870        -2.494258
 O         0.878598         2.446852        -3.016782
 C         1.404898         1.236847         1.007440
 O         1.636825         0.059174         1.150074
 H         3.008900         4.442428        -2.676315
 H         4.217764         3.102167        -2.424491
 H         3.483410         3.049877        -3.970520
 H         2.611282         3.154822        -0.061472
 H         1.225838         3.973269        -0.770159
 H        -0.246379         2.146151         0.149005
 H         0.750200        -0.141916        -0.920643
 H        -0.390361         0.749570        -1.781661
 H         2.008590         0.456493        -3.036334
 H         1.791051         1.890003         1.843167
