19
Iteration:  3133
 C         3.312792         2.918721        -3.084583
 C         2.037691         2.654314        -2.259148
 C         2.159307         2.788565        -0.810169
 C         1.112068         1.803393        -0.169233
 C         0.488765         0.960592        -1.363816
 C         1.157823         1.466683        -2.675026
 O         0.763731         2.800154        -2.980802
 C         1.633353         0.712313         0.681063
 O         1.201696         0.564845         1.789158
 H         3.621906         3.989449        -3.056293
 H         4.030699         2.210469        -2.613656
 H         3.073987         2.519732        -3.980827
 H         3.230168         2.601633        -0.354616
 H         1.916081         3.755061        -0.551447
 H         0.422893         2.256406         0.526991
 H         0.811107        -0.094457        -1.161702
 H        -0.553602         1.133047        -1.473455
 H         1.301959         0.730808        -3.413303
 H         2.438163         0.014077         0.339873
