19
Iteration:  3759charge 0 multiplicity 1
 C         3.235325         3.321466        -2.828494
 C         2.122477         2.578159        -2.206117
 C         1.992923         2.772333        -0.719845
 C         0.764428         1.750034        -0.281611
 C         0.585912         0.708648        -1.527211
 C         1.409112         1.328360        -2.622236
 O         0.871491         2.591662        -3.011520
 C         0.927245         1.074730         1.019980
 O         1.968908         0.487524         1.375375
 H         3.170310         4.347544        -2.349903
 H         4.240424         2.954304        -2.843095
 H         3.073863         3.445704        -3.996887
 H         2.925987         2.342174        -0.144966
 H         1.570000         3.697764        -0.397206
 H        -0.075093         2.361515        -0.198117
 H         0.797930        -0.372744        -1.199464
 H        -0.571786         0.604241        -1.761763
 H         1.637181         0.520994        -3.399906
 H        -0.064200         1.021000         1.467322
