19
Iteration:  3220
 C         3.116977         3.018967        -3.357094
 C         2.075509         2.647925        -2.398713
 C         2.392748         2.500282        -0.907470
 C         1.276607         1.643993        -0.289754
 C         0.826506         0.727530        -1.504210
 C         1.123894         1.526935        -2.751798
 O         0.706976         2.973058        -2.543299
 C         1.625380         1.019237         1.056852
 O         0.759941         0.568121         1.806034
 H         3.466598         4.126890        -3.243272
 H         4.143067         2.454598        -3.254232
 H         2.905222         2.963225        -4.386476
 H         3.239252         1.818669        -0.833039
 H         2.729481         3.289469        -0.371942
 H         0.447680         2.245167        -0.057033
 H         1.333418        -0.293425        -1.386220
 H        -0.167771         0.370635        -1.349038
 H         1.007300         1.166622        -3.723193
 H         2.717244         0.795896         1.269236
