19
Iteration:  2104
 C         3.369375         2.517494        -2.988473
 C         2.039048         2.561747        -2.293972
 C         2.068021         2.868173        -0.727839
 C         0.909595         1.933239        -0.157065
 C         0.354012         1.104200        -1.389674
 C         1.019283         1.608979        -2.723168
 O         0.881239         3.001829        -2.985865
 C         1.623078         0.703472         0.583935
 O         1.515389         0.390670         1.799856
 H         3.810362         3.507162        -2.774468
 H         4.116049         1.803933        -2.437228
 H         3.265867         2.206683        -4.022066
 H         2.904707         2.414738        -0.289914
 H         2.016425         3.938982        -0.406243
 H         0.179296         2.457551         0.552311
 H         0.538028         0.004944        -1.228660
 H        -0.652511         1.398111        -1.407275
 H         1.110467         0.946607        -3.641225
 H         2.349091         0.087683         0.009725
