19
Iteration:  1088charge 0 multiplicity 1
 C         3.358238         2.395904        -3.242190
 C         2.175960         2.432033        -2.337561
 C         2.276690         2.765176        -0.801762
 C         1.242055         1.965359        -0.136648
 C         0.076035         1.412369        -1.271771
 C         0.921748         1.651822        -2.484600
 O         0.987822         3.065321        -2.836829
 C         1.640597         0.644177         0.615142
 O         1.178037         0.293450         1.674197
 H         3.918668         3.332014        -3.337010
 H         4.140507         1.601026        -2.973947
 H         2.956793         2.173500        -4.181921
 H         3.308925         2.438042        -0.402780
 H         2.324520         3.885737        -0.606180
 H         0.608296         2.559058         0.515126
 H        -0.103144         0.326081        -1.046132
 H        -0.743470         2.152418        -1.266238
 H         0.708740         1.087821        -3.383018
 H         2.500032         0.109112         0.226678
