19
Iteration:  4783charge 0 multiplicity 1
 C         3.401743         2.838469        -2.410480
 C         1.969905         2.626903        -2.072765
 C         1.372029         3.028595        -0.792064
 C         0.616257         1.860652        -0.278085
 C         0.457120         0.846936        -1.395221
 C         1.381032         1.372760        -2.486892
 O         0.933991         2.531168        -3.169402
 C         1.578949         1.345891         0.818528
 O         2.048317         0.216589         0.935733
 H         3.545737         3.915063        -2.532275
 H         3.904612         2.619083        -1.487219
 H         3.655239         2.385899        -3.293517
 H         2.113476         3.293748        -0.048560
 H         0.718013         3.989799        -0.788210
 H        -0.270820         2.189898         0.248760
 H         0.950065        -0.198294        -1.095129
 H        -0.647738         0.749970        -1.570188
 H         1.804338         0.477728        -2.910344
 H         1.781879         2.155199         1.600763
