19
Iteration:  2940
 C         3.518726         2.678098        -2.697519
 C         2.007690         2.493539        -2.217822
 C         1.784257         2.879245        -0.752835
 C         0.848103         1.757371        -0.217004
 C         0.198943         1.076373        -1.462307
 C         1.094038         1.472274        -2.658252
 O         0.893266         2.854005        -3.065069
 C         1.644142         0.792993         0.507693
 O         1.788618         0.599256         1.684796
 H         3.710168         3.779757        -2.836355
 H         4.177732         2.284860        -1.885576
 H         3.766454         2.038879        -3.498481
 H         2.614767         3.098907        -0.238785
 H         1.240776         3.876079        -0.745714
 H         0.206890         2.245369         0.568343
 H         0.195996        -0.007669        -1.365278
 H        -0.889509         1.452074        -1.401004
 H         1.304013         0.737141        -3.306318
 H         2.196645         0.053088        -0.214130
