19
Iteration:   957
 C         3.395282         2.081797        -2.936040
 C         2.091777         2.423608        -2.256902
 C         2.093515         2.810258        -0.813858
 C         1.006117         1.978248        -0.058049
 C         0.103490         1.601292        -1.228863
 C         0.808140         1.694889        -2.491845
 O         1.049690         3.142535        -3.027083
 C         1.726954         0.744268         0.461277
 O         1.508134         0.195527         1.537169
 H         4.059228         2.926066        -2.715212
 H         3.976669         1.191930        -2.398401
 H         3.222541         1.808067        -3.993390
 H         3.087061         2.539764        -0.337988
 H         1.938181         3.834320        -0.551044
 H         0.513711         2.601162         0.707993
 H        -0.395019         0.565128        -1.157899
 H        -0.808984         2.264895        -1.344462
 H         0.791352         1.013535        -3.306568
 H         2.566802         0.444075        -0.156584
