19
Iteration:  1451
 C         3.382189         2.466766        -2.997350
 C         2.136993         2.547971        -2.270026
 C         2.145092         2.465534        -0.798485
 C         0.835743         1.626950        -0.252898
 C         0.142883         1.192194        -1.535191
 C         0.884787         1.797105        -2.777604
 O         0.975819         3.210992        -2.799928
 C         1.524457         0.498843         0.664180
 O         1.725048         0.812210         1.852905
 H         3.681065         3.572962        -3.174423
 H         4.113710         2.055195        -2.270323
 H         3.408386         1.761248        -3.900348
 H         3.042131         1.892773        -0.529589
 H         2.154329         3.316623        -0.222486
 H         0.307299         2.219448         0.506613
 H         0.042353         0.061772        -1.559511
 H        -0.929895         1.546815        -1.644810
 H         0.904764         1.141736        -3.617059
 H         2.019858        -0.449126         0.204056
