19
Iteration:   944
 C         3.376561         2.124729        -2.875485
 C         2.049987         2.487472        -2.281062
 C         2.205512         2.817946        -0.697862
 C         1.038228         2.014076        -0.128740
 C        -0.032458         1.642583        -1.290876
 C         0.873315         1.716344        -2.615397
 O         1.006909         3.058893        -3.053622
 C         1.740246         0.716916         0.520103
 O         1.550232         0.154065         1.594585
 H         4.156975         2.845836        -2.886651
 H         3.592884         1.140949        -2.280621
 H         3.346236         1.895108        -3.835954
 H         3.169679         2.512369        -0.377072
 H         2.048967         3.891097        -0.691225
 H         0.521183         2.444245         0.707841
 H        -0.495566         0.658378        -1.005524
 H        -0.794761         2.435141        -1.231639
 H         0.748727         0.902916        -3.345303
 H         2.356858         0.235832        -0.260835
