19
Iteration:  4618
 C         3.257314         3.211941        -2.980708
 C         2.030421         2.761271        -2.332198
 C         1.847369         2.867338        -0.790004
 C         0.898086         1.699646        -0.298193
 C         1.031002         0.668155        -1.461924
 C         1.441238         1.484561        -2.696736
 O         0.670405         2.638653        -2.911655
 C         1.203965         1.222187         1.173311
 O         1.462101         0.076737         1.455604
 H         3.468389         4.239503        -3.288245
 H         4.075835         3.059320        -2.223076
 H         3.378766         2.776895        -3.849589
 H         2.904818         2.846306        -0.250023
 H         1.564795         4.016782        -0.578753
 H        -0.155595         2.153462        -0.242214
 H         1.786884        -0.156842        -1.206353
 H         0.033600         0.263229        -1.800490
 H         1.863246         0.876479        -3.534387
 H         1.013214         2.077599         1.922913
