19
Iteration:  1743charge 0 multiplicity 1
 C         3.350942         2.718528        -3.314084
 C         2.123684         2.463469        -2.324910
 C         2.304732         2.695064        -0.799442
 C         1.092470         1.916192        -0.112632
 C         0.360782         1.125323        -1.295510
 C         1.034931         1.539876        -2.586656
 O         0.878488         3.041119        -2.846182
 C         1.556939         0.753524         0.674710
 O         1.163118         0.365543         1.803664
 H         3.876751         3.609122        -2.998562
 H         4.184445         1.964089        -3.434016
 H         2.877457         3.092375        -4.311621
 H         3.230981         2.217931        -0.686305
 H         2.366821         3.810170        -0.595964
 H         0.299353         2.414602         0.542655
 H         0.386679         0.033140        -1.257582
 H        -0.670817         1.353738        -1.279499
 H         1.026576         0.875832        -3.445787
 H         2.427220         0.187384         0.285949
