19
Iteration:  1866
 C         3.018190         3.153677        -3.312895
 C         2.205057         2.440149        -2.349306
 C         2.633257         2.076852        -0.929855
 C         1.374598         1.535508        -0.308086
 C         0.492421         0.870648        -1.536043
 C         1.055621         1.632697        -2.722025
 O         0.851930         3.032926        -2.410540
 C         1.447741         0.639350         0.865632
 O         0.935601         1.069811         1.841371
 H         3.307429         4.184948        -2.974891
 H         4.023107         2.648974        -3.599267
 H         2.402374         3.370427        -4.205003
 H         3.365266         1.277357        -0.841258
 H         2.969605         2.998140        -0.460609
 H         0.796811         2.411583         0.032218
 H         0.514300        -0.235356        -1.710867
 H        -0.622192         1.169036        -1.400486
 H         0.814609         1.400725        -3.886803
 H         1.672094        -0.431809         0.716415
