19
Iteration:  4482
 C         3.118510         3.470207        -3.198880
 C         2.092698         2.686836        -2.302208
 C         2.029834         2.811990        -0.759111
 C         1.053488         1.683676        -0.333139
 C         1.157393         0.534539        -1.362909
 C         1.454130         1.420097        -2.687236
 O         0.688154         2.661867        -2.776048
 C         1.257680         1.238961         1.088621
 O         1.069073         0.114529         1.470983
 H         3.226666         4.464448        -3.037133
 H         3.986142         3.037256        -2.904165
 H         2.869284         3.243980        -4.239219
 H         2.980702         2.632384        -0.193477
 H         1.908492         3.937874        -0.554984
 H         0.061429         2.173833        -0.381802
 H         2.003961        -0.160526        -0.957344
 H         0.264960        -0.146812        -1.490025
 H         1.724347         0.790289        -3.484857
 H         1.450984         2.031356         1.802907
