19
Iteration:  3782charge 0 multiplicity 1
 C         3.209387         3.381176        -2.864508
 C         2.079968         2.584019        -2.266998
 C         2.004096         2.659825        -0.739538
 C         0.782064         1.728208        -0.283758
 C         0.691792         0.772382        -1.512467
 C         1.428732         1.358345        -2.732611
 O         0.853211         2.631978        -3.005151
 C         0.914819         1.069484         1.065549
 O         1.891078         0.423016         1.531401
 H         3.080217         4.454836        -2.708794
 H         4.200999         3.032850        -2.737055
 H         3.122543         3.228716        -4.043365
 H         2.979791         2.117957        -0.417616
 H         1.812701         3.708971        -0.523153
 H        -0.095872         2.286280        -0.275597
 H         1.091419        -0.189770        -1.088677
 H        -0.441455         0.492885        -1.652480
 H         1.589911         0.639982        -3.598887
 H         0.014866         1.298935         1.655258
