19
Iteration:   181
 C         3.353083         2.329346        -3.236333
 C         2.204564         2.272162        -2.336781
 C         2.436002         2.022944        -0.876154
 C         1.010733         2.027953        -0.257719
 C         0.181932         1.441182        -1.343974
 C         0.835831         1.919298        -2.598740
 O         1.015341         3.298799        -2.461666
 C         1.098360         1.176828         0.996202
 O         1.679238         0.146395         1.232725
 H         4.097566         3.122367        -2.904281
 H         3.906632         1.384153        -3.028076
 H         3.183552         2.553406        -4.240990
 H         2.791767         0.920146        -0.664958
 H         3.013686         2.812512        -0.352866
 H         0.708582         3.026914         0.096339
 H         0.269071         0.303970        -1.215048
 H        -0.912466         1.607676        -1.352946
 H         0.320490         1.603747        -3.597868
 H         0.650346         1.877149         1.787630
