19
Iteration:  3112
 C         3.368624         2.802303        -3.124681
 C         2.078913         2.555231        -2.293699
 C         1.973672         2.830342        -0.798689
 C         0.974745         1.817509        -0.230821
 C         0.428683         0.960082        -1.441274
 C         1.148543         1.459017        -2.614579
 O         0.846819         2.907512        -2.938763
 C         1.674799         0.789532         0.718396
 O         1.346494         0.484034         1.858099
 H         3.424552         3.903612        -2.933983
 H         4.268450         2.335829        -2.695377
 H         3.221743         2.631748        -4.104307
 H         2.953233         2.537053        -0.186363
 H         1.729490         3.830955        -0.568681
 H         0.072614         2.275419         0.217811
 H         0.670869        -0.063258        -1.289139
 H        -0.571825         1.273675        -1.541985
 H         1.357134         0.794283        -3.393674
 H         2.574327         0.254683         0.240097
