19
Iteration:  3277charge 0 multiplicity 1
 C         2.926072         3.259625        -3.497387
 C         2.152480         2.548887        -2.387635
 C         2.601253         2.417640        -0.975713
 C         1.429231         1.702134        -0.292563
 C         0.882647         0.701818        -1.383216
 C         1.228824         1.457461        -2.603701
 O         0.760754         2.880773        -2.402346
 C         1.539442         0.862392         1.001126
 O         0.523520         0.722553         1.652324
 H         3.248865         4.315234        -3.176541
 H         3.610144         2.492547        -3.937059
 H         2.105886         3.346476        -4.247806
 H         3.515538         1.774601        -0.936843
 H         2.810088         3.320394        -0.468423
 H         0.719419         2.547878        -0.005750
 H         1.698606        -0.039538        -1.213596
 H        -0.203119         0.437571        -1.168553
 H         1.020160         1.028664        -3.610116
 H         2.354186         0.335095         1.475907
