19
Iteration:  3960charge 0 multiplicity 1
 C         3.234462         3.196080        -2.872252
 C         2.057988         2.666499        -2.227860
 C         1.717354         2.981995        -0.730712
 C         0.842924         1.867576        -0.276774
 C         0.877508         0.655193        -1.361162
 C         1.468967         1.299295        -2.586634
 O         0.790693         2.573848        -2.981046
 C         1.347484         1.284392         1.037272
 O         1.496060         0.107675         1.244608
 H         3.412872         4.307733        -2.827059
 H         4.213092         2.597382        -2.618717
 H         3.039623         3.109088        -3.994925
 H         2.669060         3.097139        -0.211276
 H         1.358661         4.042341        -0.680982
 H        -0.204140         2.050368        -0.232701
 H         1.680111        -0.082371        -1.122921
 H        -0.111310         0.211044        -1.566474
 H         1.757090         0.855045        -3.516731
 H         1.609310         2.074393         1.783190
