19
Iteration:  3297
 C         2.856316         3.301106        -3.569399
 C         2.192030         2.565502        -2.316969
 C         2.702060         2.382938        -0.868924
 C         1.415997         1.683682        -0.259793
 C         0.915467         0.673966        -1.430136
 C         1.187216         1.520673        -2.639268
 O         0.733938         2.798512        -2.456147
 C         1.482375         0.928415         0.988068
 O         0.538476         0.708486         1.723534
 H         3.244490         4.298901        -3.154861
 H         3.711236         2.616140        -3.980468
 H         2.343494         3.466305        -4.477872
 H         3.556961         1.787055        -0.752668
 H         3.018573         3.250920        -0.418309
 H         0.729001         2.434304        -0.290120
 H         1.166302        -0.431104        -1.336016
 H        -0.149303         0.937917        -1.372480
 H         1.049215         1.035141        -3.586011
 H         2.499180         0.425376         1.295243
