19
Iteration:  1724
 C         3.345822         2.771249        -3.194093
 C         2.133490         2.553798        -2.359357
 C         2.246483         2.610543        -0.846851
 C         1.079303         1.973636        -0.136950
 C         0.296569         1.254448        -1.239014
 C         0.972531         1.557022        -2.549397
 O         0.925096         2.906863        -2.970575
 C         1.646253         0.771022         0.702818
 O         1.213369         0.273337         1.778007
 H         3.861706         3.661891        -2.927847
 H         3.973553         1.896723        -3.002801
 H         3.135481         3.088421        -4.166140
 H         3.156657         2.023061        -0.453148
 H         2.285665         3.690273        -0.678851
 H         0.513689         2.768559         0.356309
 H         0.261347         0.221062        -0.987337
 H        -0.802440         1.470015        -1.147235
 H         0.993801         0.808597        -3.451796
 H         2.328163         0.191061         0.043138
