19
Iteration:  2850charge 0 multiplicity 1
 C         3.393448         2.804721        -2.731677
 C         2.088160         2.445181        -2.208506
 C         1.860896         2.760362        -0.757301
 C         0.812198         1.761812        -0.252547
 C         0.176916         1.070447        -1.468775
 C         1.042184         1.412027        -2.623141
 O         0.970349         2.833525        -3.008578
 C         1.676101         0.800058         0.492429
 O         1.744496         0.684212         1.709268
 H         3.849297         3.656722        -2.182623
 H         4.118702         2.004929        -2.335668
 H         3.623292         2.716906        -3.797895
 H         2.605347         2.685437        -0.004319
 H         1.604386         3.840911        -0.727046
 H         0.015908         2.288303         0.467381
 H         0.313275        -0.034443        -1.385139
 H        -0.847749         1.452296        -1.802039
 H         0.941209         0.775980        -3.614798
 H         2.325164         0.283434        -0.212965
