19
Iteration:  4061
 C         3.194418         3.377271        -2.828503
 C         2.085356         2.580372        -2.181199
 C         1.929289         2.872612        -0.755213
 C         0.757581         1.881024        -0.321516
 C         0.673307         0.691547        -1.489403
 C         1.526099         1.219789        -2.580106
 O         0.778093         2.523095        -2.924495
 C         1.343919         1.305186         1.022972
 O         1.558798         0.150844         1.254220
 H         2.787020         4.462288        -2.991627
 H         4.224155         3.239800        -2.153803
 H         3.355431         2.994615        -3.819587
 H         2.914142         2.585084        -0.335631
 H         1.657852         4.016080        -0.747474
 H        -0.129000         2.384540         0.048439
 H         1.054501        -0.288113        -1.168214
 H        -0.251338         0.524008        -1.964004
 H         1.996323         0.573282        -3.375600
 H         1.456972         2.167748         1.837200
