19
Iteration:  1949
 C         3.268029         2.939011        -3.332308
 C         2.135565         2.516536        -2.299654
 C         2.447633         2.237419        -0.865912
 C         1.234658         1.459410        -0.379346
 C         0.565912         0.752517        -1.600688
 C         0.984096         1.682292        -2.713132
 O         0.764075         3.175947        -2.407462
 C         1.521727         0.660629         0.808526
 O         1.006763         1.020708         1.913782
 H         3.607947         3.956151        -3.094082
 H         4.076470         2.235078        -3.554445
 H         2.601762         3.205166        -4.252169
 H         3.491836         1.646657        -0.920366
 H         2.695300         3.184191        -0.266269
 H         0.526277         2.298068        -0.062586
 H         0.832399        -0.322052        -1.770006
 H        -0.495797         0.742177        -1.590929
 H         0.729270         1.670909        -3.671187
 H         2.268278        -0.108799         0.724902
