19
Iteration:  4158charge 0 multiplicity 1
 C         3.259129         3.230463        -2.964177
 C         2.032211         2.642624        -2.246515
 C         1.974173         2.695633        -0.741857
 C         0.870347         1.599972        -0.394507
 C         1.064701         0.589635        -1.515111
 C         1.343308         1.433851        -2.708624
 O         0.692983         2.774820        -2.785704
 C         0.994028         1.286491         1.042753
 O         1.606311         0.342505         1.478929
 H         3.481948         4.294709        -2.747600
 H         4.141507         2.678912        -2.571368
 H         3.182020         3.066896        -3.982841
 H         2.886440         2.355417        -0.300055
 H         1.603164         3.663959        -0.506924
 H        -0.029896         2.186752        -0.519506
 H         1.806923        -0.270768        -1.430843
 H         0.204957        -0.085317        -1.627603
 H         1.530276         0.966356        -3.704116
 H         0.522722         2.116254         1.658260
