19
Iteration:  2113
 C         3.385383         2.546976        -2.924166
 C         2.071019         2.549597        -2.276821
 C         2.007824         2.797044        -0.787462
 C         0.990656         1.873995        -0.152299
 C         0.320866         1.169135        -1.395235
 C         1.044253         1.579375        -2.599538
 O         0.852908         3.001898        -3.003682
 C         1.656714         0.753827         0.627269
 O         1.505279         0.411091         1.728784
 H         3.929059         3.485571        -2.925849
 H         3.935667         1.686935        -2.457727
 H         3.422210         2.320517        -4.023143
 H         2.971705         2.517432        -0.478851
 H         1.934561         3.853176        -0.426962
 H         0.168532         2.410800         0.448978
 H         0.382873         0.102394        -1.501002
 H        -0.771221         1.287103        -1.483750
 H         0.974964         0.983149        -3.466823
 H         2.175915         0.120050        -0.159198
