19
Iteration:  2718charge 0 multiplicity 1
 C         3.376116         2.875158        -3.048278
 C         2.057878         2.518386        -2.270074
 C         2.136061         2.545591        -0.788282
 C         0.978566         1.780992        -0.281756
 C         0.496883         0.966502        -1.485382
 C         1.123311         1.481743        -2.730948
 O         0.763860         2.963663        -2.824724
 C         1.550305         0.745138         0.671189
 O         1.360493         0.721001         1.881579
 H         3.823260         3.832831        -2.825794
 H         4.053531         2.035104        -2.829171
 H         3.179852         2.952917        -4.154780
 H         3.018816         2.064096        -0.353510
 H         2.101802         3.677055        -0.373494
 H         0.160700         2.339397         0.308175
 H         0.807498        -0.093922        -1.285891
 H        -0.611059         0.848783        -1.624205
 H         1.051007         0.978128        -3.785611
 H         2.362065         0.067706         0.251565
