19
Iteration:    88
 C         3.244921         2.525516        -3.416981
 C         2.189538         2.434801        -2.331706
 C         2.664476         2.351639        -0.833714
 C         1.372696         1.880430        -0.205316
 C         0.411691         1.128001        -1.179100
 C         0.849487         1.785961        -2.478397
 O         0.937345         3.212767        -2.572098
 C         1.547400         1.071450         0.984102
 O         0.707671         0.218536         1.237601
 H         3.783529         3.488263        -3.362756
 H         4.021201         1.765203        -3.331424
 H         2.773867         2.578946        -4.433469
 H         3.339682         1.578276        -0.846757
 H         3.114321         3.263186        -0.473307
 H         0.819810         2.762873         0.117229
 H         0.705978         0.153979        -1.123054
 H        -0.624600         1.118005        -0.909936
 H         0.532626         1.424968        -3.451071
 H         2.403765         1.440813         1.724510
