19
Iteration:   769
 C         3.285814         2.270902        -3.150135
 C         2.168288         2.467822        -2.203484
 C         2.239451         2.522284        -0.756235
 C         0.964702         1.852031        -0.166650
 C         0.149734         1.418501        -1.395102
 C         0.881526         1.824063        -2.609523
 O         1.059414         3.201899        -2.876691
 C         1.380879         0.590414         0.579222
 O         1.675858         0.555620         1.765090
 H         4.181297         2.698935        -2.764184
 H         3.606993         1.169256        -3.194305
 H         2.985879         2.391542        -4.079458
 H         3.020785         1.791596        -0.450911
 H         2.597954         3.471974        -0.295874
 H         0.366478         2.382265         0.556354
 H        -0.189881         0.321991        -1.362791
 H        -0.843302         1.937188        -1.485459
 H         0.768593         1.286448        -3.606349
 H         1.485636        -0.292920        -0.075842
