19
Iteration:  4266
 C         3.143827         3.286805        -3.114195
 C         2.056051         2.666616        -2.227219
 C         2.025708         2.862036        -0.724075
 C         0.932151         1.727869        -0.303748
 C         1.031463         0.638791        -1.333933
 C         1.434296         1.353742        -2.556862
 O         0.780084         2.680825        -2.894922
 C         1.064263         1.273031         1.087969
 O         1.390495         0.129359         1.288873
 H         2.956461         4.373909        -3.221093
 H         4.156864         3.032108        -2.767976
 H         3.008480         2.896119        -4.061124
 H         3.051022         2.530231        -0.304848
 H         1.960235         3.815772        -0.317856
 H         0.031719         2.356927        -0.321990
 H         1.897454         0.014414        -1.111083
 H         0.116600         0.071956        -1.518375
 H         1.560090         0.824752        -3.507508
 H         0.848486         1.997420         1.907917
