19
Iteration:  1664charge 0 multiplicity 1
 C         3.386092         2.464748        -3.133644
 C         2.156619         2.504444        -2.260883
 C         2.097258         2.924588        -0.741402
 C         1.040779         1.867876        -0.165926
 C         0.157971         1.196903        -1.321194
 C         0.967577         1.641935        -2.559387
 O         0.958016         3.028982        -2.950526
 C         1.766333         0.696656         0.592804
 O         1.343703         0.306553         1.729452
 H         3.588110         3.529402        -3.332960
 H         4.286505         2.083432        -2.630396
 H         3.276968         1.857048        -4.063845
 H         3.000357         3.052178        -0.196189
 H         1.682772         3.924867        -0.900610
 H         0.347040         2.243576         0.593596
 H         0.077819         0.085382        -1.304436
 H        -0.805818         1.661389        -1.326450
 H         0.754487         1.050090        -3.419301
 H         2.669440         0.185121         0.221595
