19
Iteration:  4658
 C         3.180189         3.313712        -2.908236
 C         2.105813         2.582893        -2.153960
 C         1.748424         2.972132        -0.789297
 C         0.801739         1.836516        -0.212724
 C         0.771136         0.734229        -1.327158
 C         1.438327         1.310087        -2.537749
 O         0.934561         2.564937        -3.030901
 C         1.357992         1.269188         1.044935
 O         1.531828         0.071006         1.148958
 H         2.798952         4.315399        -2.868508
 H         4.161389         3.072583        -2.483201
 H         3.275449         2.817114        -3.963394
 H         2.649338         3.002215        -0.268321
 H         1.120265         3.862144        -0.752963
 H        -0.182075         2.203191         0.068160
 H         1.277281        -0.182301        -0.931920
 H        -0.282443         0.419600        -1.586099
 H         1.815274         0.717069        -3.417807
 H         1.644317         1.951601         1.929148
