19
Iteration:  3691
 C         3.403656         2.888103        -2.675551
 C         2.011484         2.583314        -2.156395
 C         1.680966         2.782597        -0.694365
 C         0.620329         1.691651        -0.350678
 C         0.664558         0.693879        -1.550674
 C         1.288481         1.425909        -2.673912
 O         0.831058         2.835991        -2.939891
 C         1.065961         0.972877         0.916109
 O         2.182135         0.741756         1.301001
 H         3.541079         4.047442        -2.617378
 H         4.242343         2.409131        -2.025019
 H         3.610691         2.528961        -3.641870
 H         2.629013         2.729115         0.022494
 H         1.268391         3.789317        -0.606991
 H        -0.433033         2.078882        -0.177188
 H         1.338388        -0.228282        -1.402008
 H        -0.257959         0.158211        -1.825050
 H         1.495939         1.015782        -3.591314
 H         0.125423         0.383305         1.321424
