19
Iteration:  2973
 C         3.404959         2.767835        -2.800673
 C         2.135563         2.474676        -2.125695
 C         1.824803         2.843572        -0.674462
 C         0.821303         1.742343        -0.237931
 C         0.060526         1.147762        -1.516179
 C         1.112679         1.370916        -2.589075
 O         0.971374         2.784022        -3.022980
 C         1.731297         0.820604         0.464087
 O         1.720397         0.615201         1.679139
 H         3.682008         3.842325        -2.955322
 H         4.272130         2.417765        -2.193948
 H         3.543856         2.391945        -3.802357
 H         2.709593         2.781215        -0.236440
 H         1.276774         3.819251        -0.531296
 H         0.061914         2.086335         0.524205
 H        -0.093107         0.070285        -1.399032
 H        -0.879132         1.761855        -1.623453
 H         1.400712         0.631830        -3.243198
 H         2.449085         0.401149        -0.256646
