19
Iteration:  1066charge 0 multiplicity 1
 C         3.425516         2.460710        -3.258756
 C         2.149939         2.300544        -2.307766
 C         2.248181         2.719790        -0.900451
 C         1.197741         1.860267        -0.008509
 C         0.118140         1.594399        -1.171607
 C         0.870991         1.631264        -2.507189
 O         1.001229         3.024332        -2.911024
 C         1.648244         0.680762         0.624879
 O         1.182564         0.267326         1.617045
 H         3.825648         3.466124        -3.119053
 H         4.374158         1.896107        -2.916053
 H         3.372861         2.290467        -4.266283
 H         3.263963         2.874289        -0.410467
 H         1.893658         3.740793        -0.650606
 H         0.645794         2.491308         0.688644
 H        -0.205560         0.584449        -0.838752
 H        -0.555492         2.478374        -1.166400
 H         0.649012         1.042411        -3.380139
 H         2.459270         0.093433         0.139638
