19
Iteration:  4315charge 0 multiplicity 1
 C         3.265318         3.206089        -2.994110
 C         2.010556         2.700231        -2.299358
 C         1.834875         2.930716        -0.824975
 C         1.030089         1.725103        -0.317332
 C         1.042488         0.619971        -1.332901
 C         1.384900         1.422759        -2.595834
 O         0.703992         2.705961        -2.944685
 C         1.365910         1.242432         1.076217
 O         1.245064         0.060195         1.403635
 H         3.463951         4.262712        -2.798462
 H         4.118017         2.641305        -2.582766
 H         3.238629         3.089817        -4.153458
 H         2.727681         3.125545        -0.146994
 H         1.238654         3.958533        -0.667172
 H        -0.007456         2.097837        -0.183667
 H         1.900054        -0.199826        -1.251241
 H         0.041394         0.131837        -1.343246
 H         1.765216         1.058977        -3.549525
 H         1.681757         1.988036         1.805873
