19
Iteration:  2963
 C         3.457585         2.738605        -2.733466
 C         2.015906         2.488158        -2.177413
 C         1.825303         2.846015        -0.699534
 C         0.769656         1.777864        -0.307822
 C         0.129979         1.176194        -1.493379
 C         1.139124         1.403095        -2.593355
 O         0.942269         2.771845        -2.993452
 C         1.751814         0.741131         0.468779
 O         1.740189         0.632359         1.667451
 H         3.441529         3.819440        -2.870059
 H         4.273026         2.388624        -2.096863
 H         3.515896         2.168818        -3.683017
 H         2.646320         2.818137        -0.088168
 H         1.587047         3.969784        -0.632353
 H         0.126158         2.144697         0.477016
 H        -0.101295         0.115822        -1.252522
 H        -0.858529         1.659417        -1.786721
 H         1.299981         0.698364        -3.348785
 H         2.662538         0.301823        -0.048803
