19
Iteration:  1106charge 0 multiplicity 1
 C         3.257266         2.323008        -3.229931
 C         2.133187         2.514293        -2.315449
 C         2.402124         2.640175        -0.766729
 C         1.046519         1.933641        -0.099093
 C         0.279900         1.362185        -1.252231
 C         0.947678         1.716911        -2.593945
 O         0.956802         3.141979        -2.857224
 C         1.621407         0.762542         0.656934
 O         1.199834         0.304171         1.668348
 H         3.855781         3.259406        -3.244541
 H         3.891062         1.455043        -2.792625
 H         2.893357         2.110735        -4.243891
 H         3.399919         2.201280        -0.579763
 H         2.379241         3.772413        -0.614325
 H         0.546336         2.576540         0.657220
 H         0.157683         0.281052        -1.291126
 H        -0.725202         1.708131        -1.228883
 H         1.054716         0.884598        -3.347909
 H         2.352019         0.196444        -0.055397
