19
Iteration:  3341charge 0 multiplicity 1
 C         3.125648         3.224019        -3.297396
 C         2.098995         2.547031        -2.471894
 C         2.466097         2.409861        -0.923728
 C         1.334030         1.662805        -0.319239
 C         0.878413         0.629089        -1.431477
 C         1.058095         1.491493        -2.694743
 O         0.681634         2.963321        -2.599895
 C         1.590894         0.930837         1.021733
 O         0.695016         0.716154         1.853797
 H         3.173866         4.340811        -3.058214
 H         4.133553         2.663834        -3.342113
 H         3.049454         3.093786        -4.375397
 H         3.353449         1.796010        -0.720842
 H         2.826556         3.272644        -0.418667
 H         0.473131         2.251695        -0.195493
 H         1.639107        -0.189098        -1.660095
 H        -0.125270         0.139604        -1.305843
 H         0.709896         1.030361        -3.643544
 H         2.655595         0.603774         1.102881
