19
Iteration:  3128
 C         3.282253         2.900928        -3.059702
 C         2.049350         2.613271        -2.287823
 C         2.116594         2.765813        -0.793827
 C         1.077197         1.774802        -0.162095
 C         0.502835         1.009242        -1.354569
 C         1.204711         1.482888        -2.649369
 O         0.784801         2.819969        -2.976077
 C         1.650285         0.748271         0.656532
 O         1.223495         0.555335         1.800829
 H         3.618905         3.931918        -3.062290
 H         3.989970         2.184422        -2.617757
 H         3.140658         2.415090        -4.171983
 H         3.120033         2.704035        -0.529505
 H         1.836016         3.861465        -0.490635
 H         0.386014         2.299194         0.546790
 H         0.664897        -0.104142        -1.231502
 H        -0.636013         0.961095        -1.485856
 H         1.307972         0.774967        -3.561932
 H         2.405739         0.036190         0.247779
