19
Iteration:  3172charge 0 multiplicity 1
 C         3.246742         3.088443        -3.212586
 C         2.126271         2.529573        -2.432422
 C         2.207432         2.571355        -0.873029
 C         1.084328         1.830656        -0.202891
 C         0.608033         0.904898        -1.418938
 C         1.128379         1.443592        -2.694834
 O         0.830353         2.908353        -2.814114
 C         1.646426         0.784608         0.918490
 O         1.028621         0.492917         1.906396
 H         3.400074         4.144736        -3.203233
 H         4.222079         2.613780        -3.183347
 H         2.945248         2.903065        -4.371877
 H         3.150648         2.342691        -0.473996
 H         2.101471         3.749436        -0.692829
 H         0.249109         2.482938         0.123659
 H         0.772062        -0.165455        -1.300558
 H        -0.505786         0.775855        -1.351064
 H         1.155368         0.928669        -3.723787
 H         2.755329         0.569526         0.735573
