19
Iteration:  4882charge 0 multiplicity 1
 C         3.410420         2.885745        -2.393228
 C         2.003749         2.543848        -2.030297
 C         1.381707         3.081741        -0.665119
 C         0.500398         1.880505        -0.157070
 C         0.320705         0.930829        -1.274523
 C         1.397454         1.254038        -2.405620
 O         1.095405         2.359300        -3.165382
 C         1.395338         1.245829         0.911256
 O         2.197806         0.438314         0.480183
 H         3.388435         3.968694        -2.632372
 H         4.023734         2.795730        -1.464558
 H         3.794453         2.242966        -3.244812
 H         2.172631         3.440591        -0.039817
 H         0.938418         4.182341        -0.940104
 H        -0.379480         2.281706         0.335967
 H         0.396810        -0.252494        -1.048579
 H        -0.618736         1.135465        -1.834539
 H         1.892981         0.435224        -2.985999
 H         1.386838         1.720328         1.968230
