19
Iteration:  4917
 C         3.475233         2.806155        -2.322185
 C         2.047833         2.519463        -1.935313
 C         1.300883         3.127134        -0.812696
 C         0.512753         1.822325        -0.245480
 C         0.246417         0.889538        -1.354973
 C         1.309290         1.296031        -2.419038
 O         1.039859         2.490488        -3.088881
 C         1.499134         1.294790         0.740412
 O         2.309299         0.368305         0.677055
 H         3.566929         3.848848        -2.635903
 H         3.969155         2.807516        -1.398013
 H         4.181987         2.235390        -3.024957
 H         1.935724         3.546652        -0.062687
 H         0.483634         3.847102        -1.366403
 H        -0.408004         2.194141         0.274110
 H         0.284266        -0.265076        -0.925541
 H        -0.827257         1.031201        -1.691589
 H         1.555672         0.507159        -3.073252
 H         1.583107         2.026037         1.666274
