19
Iteration:  4415
 C         3.179213         3.440524        -3.067410
 C         2.088265         2.626453        -2.335126
 C         1.837609         2.914305        -0.837112
 C         1.005698         1.776025        -0.246832
 C         0.933155         0.744735        -1.307890
 C         1.416100         1.374923        -2.595778
 O         0.806619         2.626466        -2.992034
 C         1.550385         1.094574         1.010738
 O         1.070149         0.052856         1.502050
 H         3.049543         4.429419        -3.186029
 H         3.944298         3.394216        -2.387538
 H         3.425736         2.861574        -4.011801
 H         2.845149         2.945433        -0.266497
 H         1.382698         3.940678        -0.477033
 H        -0.002586         2.028094         0.120788
 H         1.590860        -0.199682        -1.092402
 H        -0.023467         0.194088        -1.322649
 H         1.759399         0.806957        -3.466427
 H         2.434635         1.651912         1.494106
