19
Iteration:  3211charge 0 multiplicity 1
 C         3.159478         3.044608        -3.382667
 C         2.102843         2.598740        -2.325290
 C         2.349043         2.471381        -0.857698
 C         1.236017         1.665192        -0.356366
 C         0.759456         0.729218        -1.470936
 C         1.141267         1.518211        -2.725922
 O         0.724769         2.995240        -2.603911
 C         1.620865         0.990137         1.028207
 O         0.831254         0.556955         1.833751
 H         3.430149         4.173030        -3.292189
 H         4.123766         2.460607        -3.191521
 H         2.715726         2.889225        -4.319971
 H         3.308001         1.812559        -0.846382
 H         2.404300         3.378750        -0.315723
 H         0.374538         2.382849        -0.111902
 H         1.376697        -0.223319        -1.478717
 H        -0.338136         0.561969        -1.473189
 H         1.072368         1.116062        -3.703260
 H         2.757717         1.014096         1.186802
