19
Iteration:   206
 C         3.376401         2.240912        -3.169305
 C         2.138783         2.305345        -2.289493
 C         2.478606         2.091013        -0.832351
 C         1.008882         1.991348        -0.248361
 C         0.027579         1.369483        -1.346107
 C         0.714225         1.946168        -2.591425
 O         1.171235         3.310422        -2.508764
 C         0.937650         1.083239         1.054126
 O         1.907363         0.296202         1.106993
 H         4.246395         2.803894        -2.750523
 H         3.709834         1.238504        -3.083739
 H         3.345984         2.654018        -4.162324
 H         2.808444         1.020360        -0.609247
 H         3.106734         2.959612        -0.519908
 H         0.637567         3.002851        -0.049006
 H        -0.133459         0.182631        -1.309663
 H        -1.028319         1.732834        -1.201875
 H         0.381575         1.698598        -3.577099
 H         0.082552         1.289139         1.786062
