19
Iteration:   938charge 0 multiplicity 1
 C         3.376654         2.132881        -2.841560
 C         2.100803         2.514638        -2.268076
 C         2.224621         2.868492        -0.731201
 C         1.061266         1.979245        -0.121056
 C        -0.056324         1.660639        -1.325949
 C         0.859467         1.733231        -2.617938
 O         0.978367         3.008147        -3.061857
 C         1.674497         0.698688         0.503909
 O         1.574301         0.152368         1.635474
 H         4.187997         2.925734        -2.754437
 H         3.685853         1.208065        -2.353498
 H         3.197899         1.839396        -4.041783
 H         3.181425         2.355694        -0.299707
 H         2.133636         3.971105        -0.727985
 H         0.754898         2.314246         0.944365
 H        -0.630433         0.721023        -1.230238
 H        -0.814029         2.464551        -1.166614
 H         0.789785         0.950067        -3.372702
 H         2.359153         0.237158        -0.334812
