19
Iteration:   290
 C         3.341981         2.021573        -3.244204
 C         2.134959         2.296577        -2.312779
 C         2.402114         2.356756        -0.814016
 C         1.016759         1.859192        -0.058614
 C        -0.010288         1.769616        -1.343867
 C         0.673241         2.030707        -2.608905
 O         1.207368         3.390839        -2.721203
 C         1.123891         0.534008         0.661900
 O         1.867007         0.362286         1.614097
 H         4.038581         2.985028        -3.168314
 H         4.004399         1.115430        -2.921781
 H         3.105647         1.942292        -4.287869
 H         3.281979         1.846366        -0.304149
 H         2.653560         3.372806        -0.528989
 H         0.608082         2.657304         0.601312
 H        -0.317535         0.764648        -1.429277
 H        -0.947933         2.333277        -1.279739
 H         0.174081         1.568923        -3.638119
 H         0.617164        -0.433479         0.348152
