19
Iteration:  1917
 C         3.214851         3.107245        -3.309605
 C         2.116951         2.542897        -2.351400
 C         2.562364         2.039427        -1.022535
 C         1.219345         1.486361        -0.376506
 C         0.700078         0.716330        -1.647140
 C         0.846521         1.722719        -2.765409
 O         0.814059         3.110727        -2.354197
 C         1.397822         0.713546         0.923038
 O         0.947026         1.077503         2.012576
 H         3.680043         3.932752        -2.836254
 H         4.036413         2.422335        -3.603847
 H         2.749002         3.315595        -4.294680
 H         3.196267         1.141205        -1.413915
 H         3.326481         2.642746        -0.438715
 H         0.662087         2.454693        -0.163278
 H         1.558403        -0.036503        -1.802011
 H        -0.239448         0.299001        -1.517538
 H         0.492587         1.612413        -3.693795
 H         2.214600        -0.104689         0.883731
