19
Iteration:  2148charge 0 multiplicity 1
 C         3.452598         2.650726        -2.990130
 C         2.095929         2.374642        -2.270463
 C         1.928522         2.866474        -0.731236
 C         1.023144         1.758119        -0.150230
 C         0.135422         1.284222        -1.451243
 C         0.952100         1.516364        -2.631151
 O         0.975079         2.933010        -2.930300
 C         1.807188         0.769729         0.597776
 O         1.477386         0.439911         1.715707
 H         3.868948         3.578728        -2.532258
 H         4.298239         1.918048        -2.599491
 H         3.244342         2.585129        -4.042512
 H         2.890389         2.730395        -0.368301
 H         1.662131         3.951932        -0.743077
 H         0.233704         2.097382         0.600735
 H        -0.099942         0.210117        -1.255746
 H        -0.687551         1.946865        -1.549672
 H         0.650405         0.847289        -3.531621
 H         2.541986         0.129155         0.001521
