19
Iteration:  1716charge 0 multiplicity 1
 C         3.397563         2.758638        -3.143942
 C         2.087167         2.518026        -2.299850
 C         2.270518         2.655207        -0.829526
 C         1.122321         1.981832        -0.169114
 C         0.235576         1.273759        -1.242052
 C         0.936585         1.569044        -2.608915
 O         0.880739         2.878820        -2.986392
 C         1.628123         0.781722         0.705841
 O         1.248021         0.264837         1.756192
 H         3.943934         3.714337        -2.739276
 H         4.200842         2.014837        -3.061949
 H         3.138395         2.825976        -4.200047
 H         3.319657         2.222269        -0.709937
 H         2.391669         3.687031        -0.521734
 H         0.464469         2.605486         0.385693
 H         0.145146         0.098506        -1.164401
 H        -0.802652         1.761680        -1.077611
 H         1.093733         0.726261        -3.357130
 H         2.474086         0.189126         0.207554
