19
Iteration:  3642
 C         3.353959         3.007080        -2.619670
 C         2.047111         2.547920        -2.151075
 C         1.726906         2.712290        -0.682531
 C         0.704582         1.643771        -0.326605
 C         0.351026         0.804640        -1.605691
 C         1.286794         1.418523        -2.701425
 O         0.935631         2.787628        -3.062454
 C         1.200027         0.704804         0.820934
 O         2.182776         0.951059         1.521998
 H         3.374653         4.090228        -2.609808
 H         4.208971         2.474458        -2.142551
 H         3.538652         2.650734        -3.740710
 H         2.619099         2.460261        -0.204122
 H         1.390983         3.775722        -0.516804
 H        -0.331209         1.987761         0.049311
 H         0.429123        -0.258875        -1.521466
 H        -0.721720         0.775837        -1.856097
 H         1.783492         0.934420        -3.637520
 H         0.373024        -0.158443         1.034770
