19
Iteration:  4721
 C         3.300569         3.124869        -2.684354
 C         2.010088         2.590827        -2.150051
 C         1.477512         3.077012        -0.696371
 C         0.688707         1.836443        -0.140650
 C         0.503892         0.865087        -1.386028
 C         1.406450         1.301512        -2.569537
 O         0.993351         2.496554        -3.269459
 C         1.535243         1.253500         1.022301
 O         1.837983         0.070890         1.131657
 H         3.272951         4.244018        -2.594246
 H         4.178686         2.841624        -2.090038
 H         3.745059         2.716100        -3.728961
 H         2.360684         3.470175        -0.026440
 H         0.936529         4.014628        -0.868387
 H        -0.266373         2.382576         0.136158
 H         0.779231        -0.140175        -1.174144
 H        -0.504951         0.810744        -1.704001
 H         1.846691         0.620866        -3.311165
 H         1.869868         1.941994         1.817144
