19
Iteration:  3458charge 0 multiplicity 1
 C         3.364586         3.077177        -2.866374
 C         2.108367         2.558645        -2.286585
 C         1.957680         2.624316        -0.755962
 C         0.906513         1.642223        -0.254953
 C         0.422625         0.839679        -1.557019
 C         1.181998         1.388257        -2.754406
 O         0.781637         2.818919        -3.008345
 C         1.538758         0.670764         0.701160
 O         1.550468         0.913382         1.903701
 H         3.430295         4.049665        -2.439217
 H         4.250611         2.460632        -2.644901
 H         3.310221         3.102331        -3.899606
 H         2.910241         2.460639        -0.249679
 H         1.942017         3.746400        -0.418305
 H         0.103364         2.181606         0.286164
 H         0.496532        -0.262334        -1.477118
 H        -0.628891         0.976526        -1.717461
 H         1.600276         0.794908        -3.586058
 H         2.078181        -0.224505         0.137669
