19
Iteration:   264
 C         3.278411         2.044136        -3.243082
 C         2.197528         2.448880        -2.260708
 C         2.364763         2.352729        -0.803588
 C         1.063747         1.765812        -0.219183
 C        -0.043993         1.651495        -1.353076
 C         0.773706         1.949233        -2.592192
 O         1.218140         3.387700        -2.658513
 C         1.030376         0.683763         0.771787
 O         1.923317         0.345011         1.508841
 H         4.136819         2.631341        -3.147795
 H         3.549874         0.998438        -3.111101
 H         2.894406         2.098029        -4.312097
 H         3.131769         1.789257        -0.428144
 H         2.632986         3.313230        -0.353213
 H         0.659274         2.591874         0.391758
 H        -0.436161         0.613594        -1.395950
 H        -0.849077         2.393586        -1.230234
 H         0.609065         1.488704        -3.528374
 H         0.040158         0.229456         0.938429
