19
Iteration:  4162
 C         3.261937         3.255125        -2.950223
 C         2.023207         2.643714        -2.253796
 C         1.994041         2.667355        -0.752521
 C         0.844974         1.594151        -0.413230
 C         1.035426         0.576130        -1.514706
 C         1.377844         1.426664        -2.751070
 O         0.704723         2.772393        -2.774834
 C         0.996939         1.317361         1.043706
 O         1.608540         0.340511         1.494587
 H         3.374293         4.331461        -2.681888
 H         4.176473         2.690003        -2.520184
 H         3.052122         2.980916        -4.044171
 H         2.867587         2.276654        -0.240806
 H         1.668629         3.724515        -0.458504
 H        -0.041530         2.242193        -0.363902
 H         1.890150        -0.078427        -1.451588
 H         0.223213        -0.124160        -1.617124
 H         1.377145         0.902974        -3.705023
 H         0.562286         2.075419         1.689787
