19
Iteration:  3199
 C         3.136921         3.060912        -3.336487
 C         2.171194         2.566598        -2.355249
 C         2.404123         2.479324        -0.841075
 C         1.107922         1.639909        -0.274464
 C         0.673954         0.759792        -1.486526
 C         1.120366         1.587711        -2.645779
 O         0.775884         2.945458        -2.706925
 C         1.568478         0.988177         0.938603
 O         0.935642         0.535679         1.859889
 H         3.321049         4.208541        -3.264333
 H         4.156827         2.483122        -3.314792
 H         2.793772         2.885145        -4.322446
 H         3.423475         2.185012        -0.457439
 H         2.368318         3.443995        -0.490010
 H         0.277505         2.324449        -0.072975
 H         1.151993        -0.289657        -1.562313
 H        -0.375086         0.498319        -1.433634
 H         1.160351         1.113642        -3.575595
 H         2.695100         1.067385         1.098923
