19
Iteration:    74
 C         3.193641         2.604467        -3.382265
 C         2.185709         2.429206        -2.351767
 C         2.656773         2.375501        -0.967697
 C         1.341410         1.969561        -0.124333
 C         0.520001         1.205707        -1.223969
 C         0.839120         1.750528        -2.556221
 O         0.976474         3.166908        -2.570421
 C         1.563028         0.950175         0.994294
 O         0.617786         0.236388         1.372726
 H         3.891266         3.526533        -3.202533
 H         3.809208         1.680744        -3.376043
 H         2.746568         2.638928        -4.328260
 H         3.450225         1.580377        -0.869334
 H         3.131216         3.335456        -0.654748
 H         0.849095         2.839593         0.354215
 H         0.985308         0.157585        -1.410008
 H        -0.566250         1.050048        -0.973609
 H         0.579516         1.107218        -3.522636
 H         2.567678         0.823429         1.518908
