19
Iteration:  3523
 C         3.438012         2.803697        -2.734284
 C         2.025307         2.550714        -2.142853
 C         1.674605         2.747684        -0.712217
 C         0.877832         1.580511        -0.345344
 C         0.463284         0.822576        -1.649507
 C         1.122550         1.487712        -2.722483
 O         0.844153         2.924185        -2.964085
 C         1.543596         0.645247         0.661146
 O         1.799230         1.002441         1.766306
 H         3.628976         3.878918        -2.772694
 H         4.196063         2.287821        -2.056173
 H         3.589468         2.354783        -3.776831
 H         2.574511         2.828262        -0.206389
 H         1.052979         3.740998        -0.699872
 H        -0.097913         1.920817         0.148962
 H         0.687519        -0.300376        -1.731831
 H        -0.632077         0.723918        -1.664374
 H         1.491861         0.966138        -3.694871
 H         2.056368        -0.258607         0.391551
