19
Iteration:   133charge 0 multiplicity 1
 C         3.262176         2.499503        -3.490525
 C         2.235699         2.332184        -2.356891
 C         2.609570         2.213165        -0.833354
 C         1.171949         2.006733        -0.203869
 C         0.328194         1.310635        -1.294539
 C         0.812713         1.876660        -2.583034
 O         1.085797         3.280554        -2.590102
 C         1.192326         1.170975         1.120461
 O         1.173884        -0.062453         1.411474
 H         3.641871         3.492434        -3.520695
 H         4.124165         1.828153        -3.422722
 H         2.711895         2.413944        -4.523149
 H         3.158360         1.356729        -0.699453
 H         3.085517         3.076704        -0.363937
 H         0.718765         2.995752        -0.011314
 H         0.439125         0.312017        -1.315646
 H        -0.692431         1.461918        -1.037244
 H         0.576408         1.367030        -3.453441
 H         1.304648         1.888841         1.935915
