19
Iteration:  1822
 C         3.218553         2.927856        -3.356697
 C         2.129024         2.476340        -2.436209
 C         2.437150         2.232866        -0.971819
 C         1.186780         1.697648        -0.310214
 C         0.617272         0.853207        -1.488625
 C         0.939097         1.742194        -2.784300
 O         0.825446         3.198177        -2.551324
 C         1.510751         0.737256         0.961851
 O         0.987452         0.724220         2.030931
 H         3.376694         3.976948        -3.014817
 H         4.181534         2.355351        -3.086910
 H         3.047534         2.831303        -4.450397
 H         3.174285         1.377540        -1.034010
 H         2.984742         3.006225        -0.391195
 H         0.448337         2.443900         0.078508
 H         1.235923        -0.059515        -1.513291
 H        -0.479957         0.627251        -1.299052
 H         0.811547         1.356680        -3.923051
 H         2.303413        -0.054124         0.642812
