19
Iteration:  3247charge 0 multiplicity 1
 C         3.129027         3.127394        -3.385227
 C         2.108340         2.542683        -2.406606
 C         2.547446         2.434933        -0.957360
 C         1.464603         1.656141        -0.344319
 C         0.967572         0.718670        -1.379124
 C         1.019374         1.565637        -2.624590
 O         0.594543         2.949528        -2.520342
 C         1.523581         0.945549         1.001890
 O         0.601006         0.630014         1.737493
 H         3.397629         4.139763        -3.102026
 H         3.971853         2.535237        -3.627064
 H         2.663123         3.180653        -4.454089
 H         3.621463         1.996387        -0.846287
 H         2.813554         3.412666        -0.324628
 H         0.664122         2.568777        -0.234791
 H         1.755489        -0.031559        -1.412906
 H         0.058772         0.102045        -1.040090
 H         0.791875         1.030622        -3.614308
 H         2.550327         0.512688         1.367121
