19
Iteration:  4198charge 0 multiplicity 1
 C         3.135125         3.474600        -2.911521
 C         2.131947         2.626503        -2.276116
 C         2.125129         2.489606        -0.727446
 C         0.928486         1.610136        -0.358857
 C         0.816821         0.583038        -1.516157
 C         1.416356         1.376967        -2.694125
 O         0.750862         2.684433        -2.908996
 C         1.023562         1.345282         1.053896
 O         1.555348         0.361681         1.524599
 H         2.829368         4.523686        -2.836301
 H         4.138270         3.330497        -2.615062
 H         3.104473         3.330484        -4.083494
 H         3.198575         2.100262        -0.457853
 H         2.157316         3.450930        -0.189775
 H        -0.061956         2.147476        -0.550569
 H         1.478016        -0.260140        -1.323427
 H        -0.250426         0.233289        -1.708787
 H         1.490561         0.776791        -3.611154
 H         0.665033         2.143000         1.711645
