19
Iteration:  3322
 C         2.993099         3.244004        -3.417714
 C         2.114027         2.572556        -2.348637
 C         2.568635         2.348728        -1.006697
 C         1.334745         1.593849        -0.233764
 C         0.901907         0.718587        -1.371772
 C         1.147633         1.536910        -2.718776
 O         0.749875         2.878250        -2.556178
 C         1.546333         0.923623         1.036517
 O         0.603284         0.717139         1.792900
 H         3.048710         4.271290        -2.995051
 H         3.959172         2.844746        -3.741907
 H         2.532901         3.377642        -4.469139
 H         3.515455         1.782656        -1.000400
 H         2.887595         3.256894        -0.514240
 H         0.581885         2.489422        -0.153633
 H         1.588172        -0.154570        -1.395187
 H        -0.198944         0.425899        -1.341267
 H         1.094324         0.984220        -3.718584
 H         2.606998         0.546101         1.318661
