19
Iteration:  3730charge 0 multiplicity 1
 C         3.322810         3.121722        -2.835430
 C         2.093720         2.584593        -2.188855
 C         1.824520         2.761063        -0.655175
 C         0.599674         1.813035        -0.302150
 C         0.655327         0.702361        -1.486424
 C         1.442197         1.385868        -2.591403
 O         0.847040         2.657284        -2.917516
 C         0.950480         0.995992         0.964785
 O         2.068863         0.613415         1.213495
 H         3.406720         4.122002        -2.512290
 H         4.189957         2.518285        -2.580887
 H         3.269355         3.298325        -3.926688
 H         2.728408         2.289780        -0.115590
 H         1.470390         3.810675        -0.401299
 H        -0.383343         2.354152        -0.319964
 H         1.167068        -0.128330        -1.055032
 H        -0.360661         0.471753        -1.781581
 H         1.769620         0.628588        -3.369539
 H         0.020431         0.532244         1.471681
