19
Iteration:  3814charge 0 multiplicity 1
 C         3.230118         3.258005        -2.986609
 C         2.078329         2.659170        -2.218775
 C         2.090926         2.616854        -0.717010
 C         0.830695         1.612690        -0.368094
 C         0.942300         0.599309        -1.482103
 C         1.358877         1.413121        -2.728541
 O         0.698343         2.783388        -2.841222
 C         0.851193         1.152210         1.053767
 O         1.754870         0.473172         1.456459
 H         3.107927         4.368408        -3.091854
 H         4.185783         3.312345        -2.483078
 H         3.273723         2.601871        -3.984776
 H         2.982328         2.348696        -0.226094
 H         2.026656         3.588729        -0.304845
 H        -0.034525         2.205958        -0.522481
 H         1.714672        -0.228914        -1.297101
 H        -0.105521         0.059353        -1.508128
 H         1.591421         0.910315        -3.724585
 H        -0.003155         1.589981         1.687009
