19
Iteration:  4670
 C         3.223518         3.317972        -2.855349
 C         2.117018         2.576587        -2.185474
 C         1.694015         2.991584        -0.773989
 C         0.778148         1.865780        -0.223067
 C         0.622698         0.764107        -1.370098
 C         1.508544         1.282545        -2.526149
 O         0.898627         2.482109        -3.007792
 C         1.411513         1.250722         1.070408
 O         1.582670         0.063962         1.122587
 H         3.048200         4.375104        -2.883570
 H         4.272512         3.367181        -2.479683
 H         3.150034         3.098170        -3.935678
 H         2.533785         3.126371        -0.147744
 H         1.451685         4.083676        -0.878147
 H        -0.171689         2.366050        -0.048116
 H         1.102237        -0.259935        -1.066101
 H        -0.487415         0.559445        -1.649305
 H         1.971452         0.517318        -3.250765
 H         1.744243         2.007896         1.872067
