19
Iteration:  2533charge 0 multiplicity 1
 C         3.019613         3.070926        -3.440302
 C         2.145959         2.616321        -2.341737
 C         2.648201         2.265233        -1.023902
 C         1.346698         1.701693        -0.299223
 C         0.739883         0.730076        -1.374685
 C         1.080784         1.566258        -2.605357
 O         0.792279         2.990711        -2.396423
 C         1.465466         0.839545         0.883094
 O         0.684812         0.782690         1.752090
 H         3.366600         4.044230        -3.277278
 H         3.780504         2.339717        -3.565175
 H         2.545300         3.190022        -4.448926
 H         3.640039         1.678274        -1.022765
 H         2.858973         3.220937        -0.296864
 H         0.710911         2.558736        -0.031663
 H         1.432608        -0.146255        -1.378448
 H        -0.284786         0.348466        -1.343138
 H         1.090575         1.298596        -3.674013
 H         2.412221         0.231965         0.822848
