19
Iteration:   245
 C         3.273480         2.099494        -3.273809
 C         2.199705         2.286083        -2.280194
 C         2.430776         2.276085        -0.702648
 C         0.919281         1.957547        -0.129615
 C         0.031098         1.576645        -1.419981
 C         0.840528         2.030747        -2.641168
 O         1.152374         3.376770        -2.672483
 C         0.946811         0.726304         0.931030
 O         1.999923         0.321143         1.380552
 H         4.246234         2.640295        -2.999008
 H         3.494839         0.964424        -3.211028
 H         2.976921         2.424729        -4.281777
 H         3.194299         1.485935        -0.490419
 H         2.831296         3.203780        -0.287941
 H         0.436948         2.833816         0.359523
 H        -0.230095         0.564944        -1.497378
 H        -0.932652         2.077561        -1.346654
 H         0.467502         1.577743        -3.685176
 H        -0.015862         0.249132         1.332784
