19
Iteration:  1290
 C         3.195304         2.869238        -3.257374
 C         2.199193         2.497627        -2.238007
 C         2.549450         1.785083        -0.988773
 C         1.042858         1.356957        -0.464893
 C         0.345801         0.818604        -1.752093
 C         0.908990         1.889925        -2.728170
 O         0.959905         3.219272        -2.208476
 C         1.411057         0.714247         0.869339
 O         1.249255         1.321112         1.877290
 H         3.700471         3.820711        -2.930346
 H         3.994651         2.263068        -3.459169
 H         2.847947         3.131504        -4.227064
 H         3.159551         0.865013        -1.273405
 H         3.042265         2.353254        -0.193296
 H         0.601283         2.303294        -0.164958
 H         0.723790        -0.160037        -2.162471
 H        -0.748937         0.696364        -1.688601
 H         0.392245         1.867935        -3.699689
 H         1.680073        -0.322610         0.877129
