19
Iteration:  1995
 C         3.284583         2.929962        -3.244595
 C         2.216346         2.499323        -2.338067
 C         2.370040         2.478319        -0.871612
 C         1.032245         1.736481        -0.295780
 C         0.494887         0.961482        -1.464064
 C         0.959667         1.635439        -2.715374
 O         0.825692         3.077764        -2.790665
 C         1.396976         0.685165         0.803779
 O         1.251961         0.623925         2.042295
 H         3.573109         3.946290        -2.953457
 H         4.214492         2.246856        -3.309459
 H         2.841611         3.009960        -4.274650
 H         3.188618         1.592940        -0.681721
 H         2.886878         3.350065        -0.309953
 H         0.322476         2.553446         0.080689
 H         0.817546        -0.159921        -1.481371
 H        -0.547938         0.883643        -1.223653
 H         1.055585         0.979510        -3.599489
 H         1.911880        -0.121803         0.278678
