19
Iteration:  4874charge 0 multiplicity 1
 C         3.390331         2.929257        -2.384304
 C         2.037235         2.516324        -2.088521
 C         1.461900         3.109624        -0.660118
 C         0.508648         1.911274        -0.095963
 C         0.306200         0.948232        -1.322262
 C         1.386053         1.271228        -2.308089
 O         1.087063         2.337407        -3.224237
 C         1.342385         1.226161         0.833965
 O         2.212345         0.420097         0.523593
 H         3.458631         3.942462        -2.719190
 H         4.100094         2.725548        -1.666520
 H         3.589796         2.413375        -3.395515
 H         2.076258         3.308962         0.227010
 H         0.674212         3.840822        -0.831325
 H        -0.462960         2.198367         0.402897
 H         0.392694        -0.145239        -0.887428
 H        -0.666508         1.096164        -1.833530
 H         2.097600         0.579768        -2.671767
 H         1.364051         1.559738         1.861326
