19
Iteration:  1374charge 0 multiplicity 1
 C         3.255736         2.861981        -3.339995
 C         2.206478         2.495464        -2.302471
 C         2.458906         2.224178        -0.832198
 C         1.083675         1.645740        -0.244260
 C         0.300439         1.072798        -1.571137
 C         1.028589         1.698288        -2.747674
 O         0.917750         3.122533        -2.651247
 C         1.104756         0.603511         0.865046
 O         1.501128         0.847970         1.987475
 H         3.917695         3.668057        -2.862835
 H         3.796556         1.891247        -3.549549
 H         2.723723         3.326064        -4.264214
 H         3.249716         1.444346        -0.845142
 H         2.867280         3.040603        -0.300038
 H         0.466610         2.537576         0.005135
 H         0.417210         0.013210        -1.837159
 H        -0.799012         1.252525        -1.424793
 H         0.937037         1.096270        -3.638302
 H         1.038494        -0.392571         0.459412
