19
Iteration:  3224
 C         3.127717         3.040291        -3.352841
 C         2.044654         2.643611        -2.440274
 C         2.448119         2.491079        -0.944453
 C         1.277854         1.637569        -0.237538
 C         0.867378         0.705831        -1.503598
 C         1.117507         1.571913        -2.723359
 O         0.696210         2.945195        -2.529772
 C         1.615479         1.010473         1.045004
 O         0.729007         0.581768         1.789484
 H         3.387891         4.104949        -3.141992
 H         3.970317         2.366393        -3.243020
 H         2.920446         2.896991        -4.437968
 H         3.427291         1.845990        -0.825763
 H         2.916821         3.421501        -0.404562
 H         0.277814         2.286133        -0.004127
 H         1.425642        -0.243584        -1.506815
 H        -0.209098         0.365041        -1.279610
 H         0.970050         1.194132        -3.772936
 H         2.668321         0.736418         1.387619
