19
Iteration:  3340
 C         3.114792         3.228785        -3.302979
 C         2.106344         2.544825        -2.480493
 C         2.462281         2.400507        -0.924586
 C         1.334712         1.668895        -0.320011
 C         0.886701         0.632649        -1.432997
 C         1.059678         1.491256        -2.685627
 O         0.684740         2.963529        -2.600597
 C         1.593700         0.927671         1.025373
 O         0.687465         0.716427         1.851899
 H         3.180652         4.331591        -3.059280
 H         4.128581         2.658513        -3.328397
 H         3.005487         3.111635        -4.354017
 H         3.364336         1.755841        -0.745443
 H         2.833537         3.304776        -0.412948
 H         0.486143         2.219828        -0.170081
 H         1.616553        -0.208823        -1.644348
 H        -0.099585         0.166020        -1.300825
 H         0.733355         1.052681        -3.620983
 H         2.638885         0.610244         1.114796
