19
Iteration:  2684
 C         3.265595         2.976970        -3.301330
 C         2.125233         2.586340        -2.346891
 C         2.244912         2.547325        -0.748218
 C         1.134608         1.602870        -0.315193
 C         0.528430         0.888008        -1.504048
 C         1.148527         1.526286        -2.743111
 O         0.812971         3.033510        -2.802814
 C         1.510564         0.624377         0.882049
 O         1.139905         0.759060         2.032429
 H         3.964052         3.726175        -2.964919
 H         3.840390         2.063562        -3.488639
 H         2.679964         3.182125        -4.258841
 H         3.295706         2.406833        -0.447273
 H         1.944475         3.631646        -0.548511
 H         0.397128         2.308264         0.095465
 H         0.841599        -0.206444        -1.484726
 H        -0.532731         0.991304        -1.530024
 H         1.066104         0.969263        -3.754189
 H         2.327771        -0.160988         0.673161
