19
Iteration:  2448charge 0 multiplicity 1
 C         3.270851         2.815531        -3.276161
 C         2.171883         2.493112        -2.287484
 C         2.344100         2.574724        -0.752434
 C         1.056228         1.814579        -0.300112
 C         0.449992         1.032384        -1.474579
 C         1.076502         1.612841        -2.671679
 O         0.746324         2.993595        -2.771758
 C         1.619895         0.884684         0.790165
 O         1.132558         0.439935         1.866185
 H         3.909124         3.763719        -3.044526
 H         4.005542         1.962449        -3.112899
 H         2.786408         2.674557        -4.300411
 H         3.303460         2.213521        -0.375532
 H         2.273282         3.553116        -0.392905
 H         0.422328         2.614546         0.179314
 H         0.871119         0.016788        -1.396755
 H        -0.631047         0.743032        -1.352749
 H         1.050103         0.927679        -3.545722
 H         2.632326         0.473269         0.534875
