19
Iteration:  3898
 C         3.129908         3.408286        -2.999253
 C         2.077108         2.604039        -2.248121
 C         2.076206         2.694436        -0.748402
 C         0.898526         1.766823        -0.355347
 C         0.813880         0.727020        -1.484729
 C         1.473533         1.368766        -2.642409
 O         0.784582         2.594912        -3.001344
 C         0.991930         1.220860         1.108219
 O         1.639947         0.229917         1.524957
 H         3.031007         4.442455        -2.586410
 H         4.083024         2.942109        -2.771108
 H         3.050446         3.443606        -4.042035
 H         3.027071         2.203751        -0.388554
 H         1.653058         3.704345        -0.431833
 H        -0.030267         2.500145        -0.242081
 H         1.323863        -0.197104        -1.261790
 H        -0.174841         0.420557        -1.727646
 H         1.637821         0.584329        -3.444399
 H         0.656203         1.859312         1.972904
