19
Iteration:  4212
 C         3.085708         3.528109        -2.995758
 C         2.048463         2.601364        -2.241923
 C         2.195934         2.609385        -0.752223
 C         0.962400         1.705100        -0.422195
 C         0.777262         0.599431        -1.518227
 C         1.422289         1.315997        -2.743726
 O         0.824030         2.609497        -2.869511
 C         1.026757         1.288077         1.116353
 O         1.525146         0.296175         1.552653
 H         2.792890         4.560734        -2.758762
 H         4.021631         3.342297        -2.481344
 H         3.156819         3.328208        -3.988535
 H         3.197614         1.948512        -0.469225
 H         2.111793         3.565162        -0.234324
 H         0.283068         2.546524        -0.431711
 H         1.195304        -0.457309        -1.194752
 H        -0.334748         0.533418        -1.748017
 H         1.859053         0.935079        -3.684187
 H         0.482249         2.018836         1.771781
