19
Iteration:  4796charge 0 multiplicity 1
 C         3.387548         2.927880        -2.399438
 C         1.944885         2.582437        -2.151442
 C         1.415348         3.135635        -0.755198
 C         0.597330         1.830902        -0.200243
 C         0.337568         0.796157        -1.360793
 C         1.324928         1.264112        -2.407420
 O         1.042313         2.559539        -3.228042
 C         1.514501         1.303566         0.854288
 O         2.109683         0.243440         0.884130
 H         3.572716         3.993923        -2.504403
 H         4.021679         2.480203        -1.700145
 H         3.804470         2.416627        -3.331573
 H         2.337524         3.344399        -0.092760
 H         0.773616         4.074614        -0.946662
 H        -0.357740         2.091551         0.337119
 H         0.632232        -0.262221        -0.873253
 H        -0.623054         0.636301        -1.871533
 H         1.924479         0.775516        -3.126883
 H         1.813100         2.098162         1.639819
