19
Iteration:  2956charge 0 multiplicity 1
 C         3.451066         2.700000        -2.681616
 C         2.068445         2.486721        -2.190160
 C         1.798785         2.871093        -0.777737
 C         0.796612         1.806708        -0.213676
 C         0.184333         1.146680        -1.480111
 C         1.113045         1.439318        -2.587952
 O         0.900689         2.792842        -3.016598
 C         1.754217         0.732461         0.464195
 O         1.746099         0.635840         1.669053
 H         3.503813         3.754280        -2.928089
 H         4.081752         2.418688        -1.851510
 H         3.521948         2.193759        -3.742152
 H         2.767941         2.588809        -0.009280
 H         1.449108         3.920728        -0.725693
 H         0.016357         2.130681         0.465062
 H        -0.247852         0.123367        -1.313122
 H        -0.733349         1.443958        -1.949121
 H         1.343219         0.840266        -3.609424
 H         2.536752         0.139810        -0.148760
