19
Iteration:    16charge 0 multiplicity 1
 C         3.195515         2.752444        -3.378345
 C         2.190939         2.416961        -2.346747
 C         2.542774         2.268682        -0.839098
 C         1.243977         1.669900        -0.241876
 C         0.517372         1.063807        -1.464575
 C         1.026604         1.736499        -2.730659
 O         0.975063         3.291887        -2.564744
 C         1.472645         0.667218         0.812588
 O         0.792505         0.659566         1.874595
 H         3.790634         3.610200        -3.129292
 H         3.919672         1.929806        -3.513028
 H         2.592848         3.057521        -4.306563
 H         3.454499         1.520197        -0.652731
 H         2.750753         3.287222        -0.434843
 H         0.562013         2.421940         0.200122
 H         0.236765        -0.119490        -1.485011
 H        -0.475689         1.530762        -1.338573
 H         0.750375         1.353242        -3.676933
 H         2.420019        -0.096533         0.688983
