19
Iteration:  3925
 C         3.219972         3.461792        -2.924703
 C         2.058984         2.597845        -2.236606
 C         1.927955         2.801649        -0.775894
 C         0.833004         1.811777        -0.314790
 C         0.761873         0.609890        -1.378788
 C         1.483031         1.282745        -2.633027
 O         0.833184         2.545316        -2.960735
 C         1.184072         1.296389         1.088929
 O         1.561231         0.206678         1.323385
 H         3.324098         4.426502        -2.364297
 H         4.271015         3.014489        -2.942658
 H         2.960304         3.515341        -4.128731
 H         2.856400         2.439996        -0.395505
 H         1.655511         3.740417        -0.447305
 H        -0.076150         2.359741        -0.179068
 H         1.110825        -0.398106        -0.951693
 H        -0.343066         0.360629        -1.674173
 H         1.614787         0.613655        -3.443118
 H         1.268726         2.130728         1.833042
