19
Iteration:   867charge 0 multiplicity 1
 C         3.377003         2.206664        -3.042121
 C         2.151373         2.371088        -2.216049
 C         2.177100         2.698682        -0.674208
 C         0.912186         2.037586        -0.079034
 C         0.003206         1.588971        -1.312809
 C         0.899446         1.681432        -2.553023
 O         1.074701         3.064982        -2.895018
 C         1.438632         0.673662         0.429787
 O         1.741889         0.332072         1.555523
 H         3.914702         3.167722        -3.166117
 H         4.126736         1.474390        -2.400073
 H         3.211699         1.630346        -3.918749
 H         3.137538         2.318062        -0.210641
 H         2.061501         3.794407        -0.469520
 H         0.508447         2.744529         0.614504
 H        -0.581436         0.609201        -1.160705
 H        -0.807258         2.330590        -1.497884
 H         0.736736         1.005307        -3.440337
 H         1.708996         0.086905        -0.523884
