19
Iteration:  3599charge 0 multiplicity 1
 C         3.363983         3.068417        -2.758212
 C         2.143245         2.535509        -2.130484
 C         1.740218         2.774555        -0.705831
 C         0.776103         1.584029        -0.340764
 C         0.256355         0.920866        -1.559601
 C         1.257839         1.346774        -2.665254
 O         0.971184         2.699984        -2.973927
 C         1.343637         0.620810         0.651650
 O         1.956855         0.967179         1.608428
 H         3.364597         4.081483        -2.287912
 H         4.381609         2.557390        -2.468501
 H         3.226317         3.116252        -3.955858
 H         2.593180         2.810382        -0.095440
 H         1.305083         3.839933        -0.561382
 H        -0.021397         2.140042         0.377592
 H         0.169903        -0.198255        -1.325407
 H        -0.797836         1.176635        -1.822437
 H         1.711707         0.605532        -3.449034
 H         1.239695        -0.404128         0.555094
