19
Iteration:  4374charge 0 multiplicity 1
 C         3.138257         3.454783        -2.973366
 C         2.054023         2.727684        -2.287903
 C         1.896439         2.795922        -0.782729
 C         0.922352         1.697485        -0.271038
 C         0.729164         0.746507        -1.473509
 C         1.570585         1.321435        -2.602611
 O         0.837531         2.525242        -2.962101
 C         1.586212         1.156666         0.949344
 O         1.192213         0.152670         1.570875
 H         2.980728         4.644808        -2.807618
 H         4.233809         3.254232        -2.642408
 H         3.213421         3.363683        -4.127526
 H         2.829031         2.586186        -0.314110
 H         1.490088         3.840663        -0.539926
 H        -0.019874         2.177318         0.093549
 H         0.852831        -0.321183        -1.199885
 H        -0.336496         0.792348        -1.848792
 H         1.852562         0.706121        -3.477428
 H         2.233139         1.877622         1.444625
