19
Iteration:  4832charge 0 multiplicity 1
 C         3.441671         3.021019        -2.490044
 C         2.037403         2.455400        -1.999739
 C         1.371552         3.094732        -0.768705
 C         0.599718         1.871189        -0.167954
 C         0.257327         1.002475        -1.371883
 C         1.411131         1.211844        -2.349297
 O         1.035546         2.417117        -3.155231
 C         1.404224         1.195458         0.875151
 O         2.216758         0.305288         0.724865
 H         3.490176         4.122592        -2.345227
 H         4.220332         2.671292        -1.791934
 H         3.560443         2.888056        -3.630106
 H         2.117403         3.898880        -0.292248
 H         0.645144         3.609719        -1.318046
 H        -0.295691         2.361687         0.308379
 H         0.220933        -0.043278        -1.103281
 H        -0.621669         1.392924        -1.857580
 H         1.780041         0.292230        -2.776369
 H         1.178751         1.597764         1.947555
