19
Iteration:  2872
 C         3.496603         2.669172        -2.724105
 C         2.054702         2.533876        -2.194529
 C         1.777292         2.851587        -0.756922
 C         0.829203         1.627556        -0.197466
 C         0.101620         1.096428        -1.501004
 C         1.115884         1.493890        -2.663129
 O         0.887795         2.835994        -3.023126
 C         1.790034         0.763735         0.493125
 O         1.711980         0.717528         1.723496
 H         3.963184         3.658587        -2.438576
 H         4.371080         1.935336        -2.606985
 H         3.454019         2.526527        -3.813765
 H         2.622447         2.860234        -0.110014
 H         1.461327         3.875178        -0.544152
 H        -0.066935         1.870545         0.563754
 H        -0.033710        -0.009374        -1.463448
 H        -0.849333         1.715264        -1.692334
 H         1.618284         0.682740        -3.378961
 H         2.459489         0.206190        -0.170957
