19
Iteration:  3806charge 0 multiplicity 1
 C         3.233152         3.312691        -3.004558
 C         2.056001         2.627280        -2.273449
 C         2.024496         2.619881        -0.681062
 C         0.827623         1.699671        -0.372455
 C         0.848556         0.591146        -1.514167
 C         1.354349         1.450392        -2.668422
 O         0.762587         2.740082        -2.903904
 C         0.891308         1.135850         1.084223
 O         1.801536         0.432964         1.513354
 H         3.087114         4.369684        -3.012329
 H         4.188007         3.136634        -2.497527
 H         3.497765         2.954083        -3.996349
 H         2.985272         1.965278        -0.442411
 H         1.927854         3.674569        -0.330795
 H        -0.083710         2.213105        -0.631935
 H         1.523481        -0.195837        -1.208665
 H        -0.140168         0.097114        -1.568483
 H         1.745313         0.924141        -3.538352
 H        -0.001039         1.447533         1.654503
