19
Iteration:  1765charge 0 multiplicity 1
 C         3.234862         2.715293        -3.297739
 C         2.187602         2.513884        -2.348643
 C         2.315433         2.630079        -0.820687
 C         1.172174         1.767656        -0.257240
 C         0.401939         1.069456        -1.409598
 C         1.069001         1.638217        -2.646596
 O         0.849460         3.051182        -2.653841
 C         1.633949         0.744641         0.780138
 O         1.079561         0.506629         1.799098
 H         3.975533         3.478079        -3.185325
 H         3.797394         1.730573        -3.058409
 H         2.872770         2.700810        -4.405182
 H         3.295231         2.397920        -0.493947
 H         1.957333         3.642818        -0.472922
 H         0.460897         2.409103         0.387839
 H         0.607828        -0.013489        -1.459112
 H        -0.655437         1.137774        -1.500864
 H         0.717715         1.201441        -3.580024
 H         2.493522         0.055975         0.488391
