19
Iteration:  3305charge 0 multiplicity 1
 C         2.901997         3.325276        -3.517579
 C         2.182312         2.549430        -2.390396
 C         2.701051         2.373275        -0.846955
 C         1.440208         1.714211        -0.311604
 C         0.851345         0.678018        -1.475147
 C         1.197159         1.470815        -2.638117
 O         0.713085         2.836378        -2.499068
 C         1.507354         0.920153         1.020846
 O         0.553553         0.701140         1.771226
 H         3.272768         4.303541        -3.283596
 H         3.752025         2.627133        -3.659626
 H         2.160648         3.360795        -4.287898
 H         3.503604         1.592232        -0.868389
 H         2.902027         3.382783        -0.293367
 H         0.705303         2.495123        -0.174439
 H         1.332355        -0.294902        -1.383812
 H        -0.197076         0.637674        -1.263104
 H         1.034657         1.083245        -3.602639
 H         2.437480         0.448022         1.412711
