19
Iteration:   646charge 0 multiplicity 1
 C         3.163992         2.641060        -3.502278
 C         2.221924         2.395505        -2.418509
 C         2.622643         1.894914        -1.072187
 C         1.329046         1.715844        -0.370171
 C         0.357239         1.073493        -1.404950
 C         0.784575         1.928480        -2.626327
 O         1.032726         3.326599        -2.325353
 C         1.300969         0.703003         0.809003
 O         1.046976         0.892462         1.999501
 H         3.710436         3.597557        -3.248495
 H         4.009113         1.810579        -3.611516
 H         2.628452         2.827520        -4.442400
 H         3.269857         0.961247        -1.091626
 H         3.339357         2.621580        -0.497546
 H         0.908325         2.711426        -0.070712
 H         0.988145         0.079695        -1.556229
 H        -0.680487         0.804048        -1.063498
 H         0.319893         1.804489        -3.590199
 H         1.433084        -0.311302         0.468947
