19
Iteration:  3406charge 0 multiplicity 1
 C         3.194478         3.071831        -3.234668
 C         2.192246         2.595208        -2.254443
 C         2.108089         2.644204        -0.758123
 C         1.031521         1.611764        -0.302994
 C         0.657889         0.807446        -1.508330
 C         1.204596         1.498653        -2.671340
 O         0.788241         2.886249        -2.904559
 C         1.509585         0.735379         0.836878
 O         1.203843         0.749084         1.989566
 H         3.320038         4.188569        -3.021075
 H         4.213225         2.496001        -2.994835
 H         2.849862         2.905552        -4.272433
 H         3.232829         2.218976        -0.449458
 H         1.910583         3.765349        -0.482306
 H         0.211529         2.194353        -0.020133
 H         1.032174        -0.242263        -1.547428
 H        -0.429598         0.523249        -1.577876
 H         1.268690         0.898214        -3.642805
 H         2.301343        -0.070268         0.406033
