19
Iteration:  3096charge 0 multiplicity 1
 C         3.403367         2.870298        -3.063325
 C         2.188288         2.492329        -2.281439
 C         1.985408         2.832749        -0.773615
 C         0.844359         1.748549        -0.197178
 C         0.286225         0.942898        -1.463967
 C         1.101737         1.516843        -2.701696
 O         0.904969         2.870520        -2.923762
 C         1.666941         0.879411         0.764458
 O         1.446429         0.448733         1.865683
 H         3.870229         3.812102        -3.261087
 H         4.267231         2.250545        -2.763875
 H         3.175487         2.479578        -4.209643
 H         2.901314         2.864433        -0.338939
 H         1.470211         3.860491        -0.774102
 H         0.090418         2.316768         0.359775
 H         0.533036        -0.206116        -1.338639
 H        -0.854126         0.986279        -1.571247
 H         1.132932         0.997505        -3.751192
 H         2.649936         0.737028         0.217604
