19
Iteration:  3923
 C         3.231944         3.466946        -2.931069
 C         2.066928         2.606949        -2.230955
 C         1.934809         2.805045        -0.778218
 C         0.843556         1.787217        -0.308131
 C         0.762168         0.603648        -1.386676
 C         1.474138         1.273923        -2.648008
 O         0.830717         2.546822        -2.961778
 C         1.168432         1.301515         1.092675
 O         1.565349         0.213820         1.335825
 H         3.262311         4.472066        -2.406805
 H         4.211618         2.992451        -2.934314
 H         2.942672         3.563112        -4.110075
 H         2.831392         2.356042        -0.465374
 H         1.681086         3.753208        -0.440199
 H        -0.059584         2.431227        -0.098734
 H         1.071805        -0.379839        -0.922732
 H        -0.346689         0.412888        -1.674800
 H         1.671225         0.601025        -3.527324
 H         1.194491         2.064638         1.890691
