19
Iteration:  4860
 C         3.429772         2.981199        -2.503716
 C         1.978583         2.587323        -1.974875
 C         1.371588         3.087259        -0.720956
 C         0.499635         1.932982        -0.190160
 C         0.234782         0.977352        -1.334211
 C         1.442175         1.211925        -2.256995
 O         1.111024         2.347668        -3.194507
 C         1.392295         1.184465         0.885845
 O         2.246487         0.353508         0.579469
 H         3.508299         4.069659        -2.463685
 H         4.138635         2.625208        -1.737978
 H         3.712557         2.503117        -3.461120
 H         2.249137         3.404869        -0.269040
 H         0.911820         4.158630        -0.856002
 H        -0.358578         2.393233         0.285178
 H         0.296490        -0.166267        -1.000798
 H        -0.759044         1.115886        -1.832482
 H         1.885943         0.276182        -2.636621
 H         1.116359         1.432908         1.931115
