19
Iteration:  1806
 C         3.268048         2.822664        -3.308390
 C         2.093656         2.573365        -2.372754
 C         2.460520         2.287823        -0.916765
 C         1.149721         1.620080        -0.249817
 C         0.589664         0.923549        -1.533757
 C         0.878468         1.739627        -2.671804
 O         0.828924         3.188296        -2.667228
 C         1.516950         0.770149         0.908642
 O         1.031055         0.657898         1.959661
 H         3.657970         3.846236        -3.197842
 H         4.088368         2.154213        -3.087428
 H         2.980909         2.484846        -4.341722
 H         3.386453         1.750791        -0.730401
 H         2.754564         3.306268        -0.562813
 H         0.448510         2.420833         0.053464
 H         1.359805         0.055852        -1.773084
 H        -0.398825         0.533988        -1.386042
 H         0.511510         1.348710        -3.529191
 H         2.519793         0.336577         0.658593
