19
Iteration:  2849charge 0 multiplicity 1
 C         3.387873         2.811534        -2.727332
 C         2.084449         2.441794        -2.216701
 C         1.863667         2.768335        -0.762918
 C         0.809586         1.765816        -0.247635
 C         0.178951         1.074916        -1.471410
 C         1.042471         1.418909        -2.626979
 O         0.976172         2.826543        -3.003141
 C         1.673431         0.799319         0.498217
 O         1.746157         0.679999         1.712291
 H         3.845889         3.661138        -2.192613
 H         4.113929         2.003305        -2.355817
 H         3.642513         2.693456        -3.825463
 H         2.600299         2.696536         0.030178
 H         1.646941         3.802430        -0.727182
 H        -0.006378         2.280292         0.461484
 H         0.335521        -0.039681        -1.393431
 H        -0.851061         1.419609        -1.796799
 H         0.920501         0.751452        -3.640534
 H         2.294765         0.269620        -0.226795
