19
Iteration:  3595charge 0 multiplicity 1
 C         3.358383         3.066820        -2.747803
 C         2.138532         2.524629        -2.172797
 C         1.729507         2.817940        -0.695551
 C         0.788400         1.611296        -0.319608
 C         0.261379         0.919133        -1.600640
 C         1.237319         1.337549        -2.660077
 O         0.984274         2.710150        -2.971753
 C         1.350095         0.601500         0.678819
 O         1.959287         0.963449         1.641759
 H         3.382065         4.078823        -2.371581
 H         4.183522         2.498211        -2.525720
 H         3.292259         3.100747        -3.826993
 H         2.707998         2.753783        -0.116823
 H         1.205487         3.720178        -0.626270
 H         0.054517         2.124032         0.235189
 H         0.166996        -0.099758        -1.434332
 H        -0.790378         1.068328        -1.905416
 H         1.617916         0.634020        -3.353377
 H         1.317773        -0.587819         0.437606
