19
Iteration:  3309
 C         2.919336         3.305105        -3.475340
 C         2.177287         2.564596        -2.420654
 C         2.686445         2.368331        -0.857662
 C         1.444147         1.712527        -0.323258
 C         0.824287         0.706481        -1.452026
 C         1.206195         1.453714        -2.662155
 O         0.707809         2.854798        -2.510811
 C         1.506796         0.914692         1.049421
 O         0.559437         0.704252         1.781467
 H         3.301030         4.366700        -3.289515
 H         3.866340         2.695413        -3.668459
 H         2.120330         3.307925        -4.216634
 H         3.478049         1.665008        -0.937778
 H         2.863222         3.245604        -0.352605
 H         0.670390         2.414586        -0.073555
 H         1.406146        -0.273916        -1.444395
 H        -0.235549         0.360671        -1.234226
 H         1.058535         1.090942        -3.693805
 H         2.567400         0.489236         1.324788
