19
Iteration:  4376
 C         3.121764         3.450211        -2.984415
 C         2.073872         2.730381        -2.267077
 C         1.883553         2.807121        -0.774137
 C         0.934739         1.713222        -0.271475
 C         0.718287         0.719927        -1.481335
 C         1.572960         1.329229        -2.625152
 O         0.838015         2.524889        -2.955827
 C         1.596388         1.161603         0.949592
 O         1.186351         0.156309         1.563883
 H         2.895070         4.630437        -2.812099
 H         4.209056         3.196157        -2.589789
 H         3.226869         3.366528        -4.042318
 H         2.816538         2.575444        -0.331696
 H         1.568324         3.766331        -0.591019
 H        -0.026985         2.154346         0.059929
 H         0.873725        -0.265631        -1.202246
 H        -0.329521         0.860860        -1.807348
 H         1.883212         0.622167        -3.428615
 H         2.244312         1.829398         1.482311
