19
Iteration:  3823charge 0 multiplicity 1
 C         3.207602         3.233845        -2.972294
 C         2.074869         2.612345        -2.222447
 C         2.077204         2.627689        -0.695513
 C         0.888579         1.643943        -0.391231
 C         0.990978         0.588310        -1.497363
 C         1.345189         1.455214        -2.713719
 O         0.714447         2.767370        -2.754165
 C         0.830622         1.191803         0.999999
 O         1.726628         0.476836         1.447950
 H         2.902206         4.212059        -3.449003
 H         4.127820         3.021143        -2.384513
 H         3.347805         2.714139        -4.058147
 H         3.022346         2.252526        -0.376632
 H         1.739510         3.581336        -0.286512
 H        -0.090169         2.244050        -0.531030
 H         1.897411        -0.085805        -1.327919
 H         0.061624        -0.008891        -1.786183
 H         1.433052         0.999715        -3.743894
 H         0.101825         1.524609         1.779704
