19
Iteration:  1817charge 0 multiplicity 1
 C         3.240255         2.872382        -3.307981
 C         2.093030         2.481159        -2.465167
 C         2.476790         2.256439        -0.967011
 C         1.137922         1.673122        -0.282767
 C         0.653643         0.910689        -1.476176
 C         0.895818         1.737361        -2.772427
 O         0.829878         3.212005        -2.578798
 C         1.518304         0.727277         0.900770
 O         0.994000         0.701530         2.047303
 H         3.423176         3.953374        -3.222637
 H         4.143417         2.343650        -3.076614
 H         2.982273         2.862711        -4.388865
 H         3.176223         1.436133        -1.036133
 H         2.801038         3.086643        -0.310238
 H         0.479666         2.496598         0.046323
 H         1.244919        -0.074450        -1.601277
 H        -0.361155         0.561883        -1.495522
 H         0.850948         1.316254        -3.687233
 H         2.441701         0.125913         0.775244
