19
Iteration:  3215
 C         3.147323         3.026186        -3.363228
 C         2.100962         2.626771        -2.344489
 C         2.345682         2.478342        -0.880480
 C         1.276067         1.654963        -0.347116
 C         0.794716         0.730738        -1.485880
 C         1.132011         1.505941        -2.744533
 O         0.714381         2.994894        -2.571804
 C         1.626432         1.004404         1.058397
 O         0.798868         0.560712         1.820645
 H         3.467335         4.029971        -3.318500
 H         4.083215         2.574288        -3.219797
 H         2.772867         2.969099        -4.451711
 H         3.201434         1.752550        -0.879043
 H         2.543078         3.455969        -0.230963
 H         0.410045         2.356517        -0.075938
 H         1.307643        -0.209247        -1.388786
 H        -0.298077         0.446012        -1.441984
 H         1.031067         1.093150        -3.805583
 H         2.739350         0.925906         1.163102
