19
Iteration:  3958
 C         3.223214         3.203249        -2.868107
 C         2.058723         2.643422        -2.208456
 C         1.727572         2.975926        -0.737260
 C         0.836683         1.872436        -0.277689
 C         0.875692         0.662209        -1.353854
 C         1.473233         1.310828        -2.604927
 O         0.794340         2.567937        -2.973835
 C         1.342257         1.302562         1.018847
 O         1.497857         0.102895         1.244996
 H         3.443105         4.307493        -2.736468
 H         4.219643         2.682961        -2.669478
 H         3.021722         3.118651        -4.074457
 H         2.643391         3.061893        -0.254638
 H         1.424283         3.966939        -0.635295
 H        -0.210578         2.076690        -0.138393
 H         1.686045        -0.092080        -1.080113
 H        -0.141998         0.159608        -1.577586
 H         1.782154         0.810220        -3.507017
 H         1.581159         2.105886         1.722985
