19
Iteration:  1589
 C         3.450573         2.539819        -2.947541
 C         2.123827         2.394452        -2.250117
 C         2.049753         2.793068        -0.724229
 C         0.982258         1.766245        -0.207935
 C         0.101094         1.310493        -1.334917
 C         0.878577         1.579453        -2.637683
 O         0.979293         3.009446        -2.916622
 C         1.722954         0.732186         0.455878
 O         1.542102         0.454908         1.704936
 H         3.867604         3.460778        -2.699163
 H         4.017672         1.664711        -2.591873
 H         3.507487         2.457103        -4.089487
 H         3.036947         2.788349        -0.254561
 H         1.692619         3.899763        -0.759413
 H         0.290462         2.175339         0.572301
 H        -0.400534         0.421295        -1.124418
 H        -0.646931         2.061224        -1.399649
 H         0.780374         0.793722        -3.377096
 H         2.386007         0.067380        -0.106496
