19
Iteration:  1093charge 0 multiplicity 1
 C         3.330662         2.368061        -3.238019
 C         2.149277         2.454054        -2.272630
 C         2.334289         2.753806        -0.836645
 C         1.214068         1.934381        -0.117835
 C         0.093862         1.391819        -1.287962
 C         0.947950         1.653635        -2.491378
 O         0.978184         3.095182        -2.851528
 C         1.630888         0.707671         0.589630
 O         1.176502         0.283534         1.695105
 H         3.917697         3.299439        -3.309044
 H         4.060052         1.629984        -3.001125
 H         2.972574         2.116808        -4.307858
 H         3.276296         2.433677        -0.470584
 H         2.308553         3.757264        -0.454530
 H         0.624017         2.609179         0.526936
 H        -0.024941         0.351237        -1.044542
 H        -0.813828         2.019866        -1.275112
 H         0.844994         1.095181        -3.439445
 H         2.516531         0.076252         0.167119
