19
Iteration:  2932
 C         3.574807         2.651317        -2.699274
 C         2.015147         2.561987        -2.232991
 C         1.760219         2.923426        -0.746715
 C         0.849892         1.768073        -0.255661
 C         0.205491         1.097372        -1.418409
 C         0.997555         1.473993        -2.639017
 O         0.938206         2.860450        -3.108591
 C         1.617755         0.730557         0.528695
 O         1.819346         0.581141         1.727692
 H         3.718622         3.674849        -2.926956
 H         4.160755         2.286709        -1.896085
 H         3.618561         2.150791        -3.736252
 H         2.599201         3.116593         0.056350
 H         0.993517         3.791196        -0.850067
 H         0.149611         2.213943         0.354588
 H         0.286664        -0.019650        -1.322620
 H        -0.861254         1.058756        -1.461106
 H         1.307547         0.749888        -3.438958
 H         2.243709         0.043427        -0.105446
