19
Iteration:   631
 C         3.178748         2.770934        -3.550120
 C         2.150096         2.258204        -2.491624
 C         2.695959         1.871618        -1.046167
 C         1.284407         1.616962        -0.247510
 C         0.443079         1.081173        -1.404919
 C         0.735944         1.961150        -2.578208
 O         1.082595         3.281216        -2.285376
 C         1.356841         0.667919         0.814039
 O         0.959207         1.007183         1.917424
 H         3.819971         3.495656        -3.107006
 H         3.745282         1.987234        -3.857929
 H         2.698301         3.078801        -4.518190
 H         3.299802         0.994228        -1.113663
 H         3.175909         2.728218        -0.679625
 H         0.959306         2.541342         0.178424
 H         0.590861         0.030426        -1.710834
 H        -0.614230         1.136819        -1.230602
 H         0.304814         1.686383        -3.518162
 H         1.776974        -0.391248         0.558442
