19
Iteration:  2572
 C         2.970329         3.208898        -3.559792
 C         2.215695         2.524290        -2.433601
 C         2.704538         2.199703        -0.998982
 C         1.375095         1.538231        -0.267695
 C         0.744802         0.744458        -1.431956
 C         1.061401         1.649579        -2.716838
 O         0.830936         3.023474        -2.453134
 C         1.492306         0.758199         1.133404
 O         0.581209         0.849231         1.870282
 H         2.947486         4.348308        -3.305034
 H         4.094599         3.084957        -3.536600
 H         2.505835         2.978742        -4.528021
 H         3.586884         1.588971        -1.138403
 H         2.806691         3.096117        -0.524838
 H         0.769316         2.398226        -0.046944
 H         1.594957         0.030905        -1.496513
 H        -0.246629         0.300300        -1.302578
 H         0.782228         1.314436        -3.683796
 H         2.341636         0.033754         1.245388
