19
Iteration:  1219
 C         3.202689         2.884664        -3.376423
 C         2.208712         2.403399        -2.495941
 C         2.603749         2.030962        -0.964355
 C         1.207041         1.743763        -0.221264
 C         0.402700         1.058783        -1.510954
 C         0.922341         1.776054        -2.701549
 O         0.935196         3.169248        -2.493017
 C         1.215558         0.705534         0.866739
 O         1.164712         0.810962         2.041870
 H         3.699294         3.801375        -3.057936
 H         4.011452         2.091607        -3.624763
 H         2.880248         3.095885        -4.414357
 H         3.137900         1.070055        -1.056095
 H         3.274208         2.788645        -0.475384
 H         0.778449         2.729307        -0.028197
 H         0.763032         0.068161        -1.355348
 H        -0.663379         0.848388        -1.591466
 H         0.539086         1.492710        -3.676117
 H         1.394850        -0.277165         0.400425
