19
Iteration:  4279charge 0 multiplicity 1
 C         3.174577         3.168493        -3.093359
 C         2.070227         2.682850        -2.247464
 C         1.961755         2.835178        -0.734253
 C         0.921997         1.843018        -0.336383
 C         1.108224         0.699068        -1.345704
 C         1.454040         1.460350        -2.629525
 O         0.676836         2.649161        -2.813992
 C         1.147801         1.281153         1.050287
 O         1.357558         0.066728         1.308421
 H         3.168064         4.252898        -3.089008
 H         4.153632         2.880889        -2.606702
 H         3.124277         2.792108        -4.024262
 H         3.050464         2.688956        -0.250677
 H         1.479468         3.804925        -0.566513
 H        -0.107590         2.166325        -0.452668
 H         1.893117        -0.059987        -0.926111
 H         0.195451         0.082805        -1.371800
 H         1.920992         0.908831        -3.464368
 H         1.073563         1.971523         1.891514
