19
Iteration:  2600
 C         3.095225         3.171370        -3.387367
 C         2.133252         2.524946        -2.420389
 C         2.634775         2.181889        -0.910863
 C         1.440055         1.554643        -0.308583
 C         0.761424         0.709939        -1.473163
 C         0.998533         1.597519        -2.709034
 O         0.710798         3.000079        -2.439042
 C         1.536780         0.853196         0.945938
 O         0.674894         0.890219         1.834661
 H         3.074339         4.252741        -3.243421
 H         4.102081         2.796707        -3.142133
 H         3.008266         3.086741        -4.468977
 H         3.575619         1.554686        -1.108941
 H         2.770739         3.238214        -0.453007
 H         0.718496         2.451534        -0.192089
 H         1.112647        -0.311330        -1.587894
 H        -0.360530         0.696493        -1.188841
 H         0.691735         1.250295        -3.751711
 H         2.481952         0.235154         1.018444
