19
Iteration:  2632charge 0 multiplicity 1
 C         3.154650         3.064219        -3.293636
 C         2.061603         2.550777        -2.366531
 C         2.448933         2.245623        -0.906877
 C         1.237771         1.688160        -0.304477
 C         0.759952         0.709564        -1.481588
 C         1.070628         1.587461        -2.718489
 O         0.746634         2.999016        -2.517196
 C         1.521621         0.894649         0.848255
 O         0.886140         0.830123         1.854318
 H         3.441519         4.019591        -2.897187
 H         4.038787         2.435762        -3.176491
 H         2.895142         3.134358        -4.350774
 H         3.299494         1.582936        -0.878020
 H         3.086116         3.084561        -0.394902
 H         0.480653         2.514874        -0.070932
 H         1.183788        -0.275618        -1.475935
 H        -0.356995         0.563603        -1.318329
 H         0.857442         1.159953        -3.749146
 H         2.437068         0.250928         0.643643
