19
Iteration:  1935charge 0 multiplicity 1
 C         3.118519         2.976761        -3.258922
 C         2.116161         2.509834        -2.353707
 C         2.550804         2.081239        -0.934625
 C         1.248197         1.477922        -0.396465
 C         0.667177         0.744092        -1.649379
 C         0.942260         1.781306        -2.746833
 O         0.779964         3.176157        -2.377868
 C         1.512404         0.737903         0.864384
 O         0.970552         1.052020         1.936597
 H         3.712589         3.866887        -2.880348
 H         3.833740         2.173256        -3.263960
 H         2.800353         3.224426        -4.308831
 H         3.374300         1.352900        -0.935882
 H         2.761645         2.949622        -0.342509
 H         0.522906         2.224976        -0.151080
 H         1.169124        -0.160744        -1.895293
 H        -0.431377         0.416868        -1.459840
 H         0.795103         1.384833        -3.805953
 H         2.142929        -0.155612         0.863242
