19
Iteration:   392charge 0 multiplicity 1
 C         3.259505         2.029515        -3.410217
 C         2.130793         2.400449        -2.324716
 C         2.488142         2.534520        -0.864115
 C         1.237816         1.967091        -0.080199
 C         0.119696         1.637550        -1.181224
 C         0.716068         2.055598        -2.506175
 O         1.168250         3.320749        -2.841031
 C         1.458327         0.566357         0.634790
 O         1.277656         0.190221         1.784771
 H         4.193460         2.632618        -3.370885
 H         3.545448         1.002052        -3.466319
 H         2.741277         2.430973        -4.372460
 H         3.370444         1.818328        -0.678882
 H         2.683870         3.600554        -0.547879
 H         0.954343         2.650279         0.703461
 H        -0.101865         0.613778        -1.268215
 H        -0.839373         2.092040        -0.957385
 H         0.274320         1.573201        -3.304036
 H         1.700783        -0.262179        -0.017772
