19
Iteration:  3883
 C         3.136788         3.345096        -3.015850
 C         2.071087         2.625467        -2.276824
 C         2.064102         2.700254        -0.713397
 C         0.879282         1.735383        -0.317817
 C         0.883395         0.657617        -1.453221
 C         1.418111         1.392567        -2.742559
 O         0.775066         2.682895        -2.952718
 C         0.961387         1.183346         1.097494
 O         1.642813         0.278147         1.549363
 H         3.112119         4.402140        -2.886501
 H         4.201464         3.150235        -2.800044
 H         2.972898         2.975819        -4.037311
 H         3.083627         2.287452        -0.401824
 H         2.184644         3.708312        -0.258486
 H        -0.053941         2.233462        -0.438543
 H         1.540985        -0.172376        -1.129544
 H        -0.117390         0.203016        -1.563130
 H         1.801542         0.970153        -3.622925
 H         0.196292         1.776513         1.677284
