19
Iteration:  3812charge 0 multiplicity 1
 C         3.227639         3.267481        -2.993963
 C         2.072604         2.656215        -2.231059
 C         2.081154         2.615755        -0.708863
 C         0.831007         1.622304        -0.365800
 C         0.921599         0.597031        -1.490363
 C         1.358875         1.419524        -2.717816
 O         0.707969         2.777438        -2.856264
 C         0.866002         1.141206         1.069268
 O         1.761043         0.468726         1.464083
 H         3.132007         4.397232        -3.027762
 H         4.234787         3.322812        -2.489054
 H         3.318286         2.625787        -3.977114
 H         2.983237         2.270344        -0.259063
 H         2.023012         3.636368        -0.318639
 H        -0.109667         2.249991        -0.585601
 H         1.663603        -0.242797        -1.267793
 H        -0.089517         0.071804        -1.481586
 H         1.631275         0.909163        -3.679990
 H        -0.017809         1.583861         1.643902
