19
Iteration:  2629
 C         3.148002         3.060496        -3.267074
 C         2.080703         2.536861        -2.363894
 C         2.465201         2.256174        -0.913812
 C         1.243874         1.707587        -0.291180
 C         0.744641         0.722835        -1.500249
 C         1.066165         1.591777        -2.708788
 O         0.736108         2.980349        -2.495485
 C         1.531760         0.872262         0.849237
 O         0.868836         0.848234         1.837037
 H         3.386776         4.073724        -2.990079
 H         4.026153         2.440434        -3.193908
 H         2.906014         3.135958        -4.359619
 H         3.234907         1.506917        -1.038847
 H         3.066592         3.052347        -0.508686
 H         0.528811         2.450442        -0.063358
 H         1.228690        -0.283553        -1.518924
 H        -0.266012         0.529204        -1.368019
 H         0.904551         1.171404        -3.700733
 H         2.488141         0.313074         0.675092
