19
Iteration:  1094
 C         3.321664         2.364801        -3.241323
 C         2.145996         2.460013        -2.261668
 C         2.344846         2.747629        -0.842709
 C         1.202670         1.928248        -0.114811
 C         0.103578         1.391476        -1.288197
 C         0.950599         1.655261        -2.496449
 O         0.976317         3.100775        -2.853662
 C         1.630490         0.717984         0.591282
 O         1.176952         0.283278         1.695092
 H         3.907685         3.303545        -3.299800
 H         4.075997         1.587942        -2.983532
 H         2.984985         2.115067        -4.303020
 H         3.305502         2.409744        -0.480699
 H         2.289364         3.770627        -0.433953
 H         0.630460         2.611991         0.546228
 H        -0.031157         0.349047        -1.052973
 H        -0.817353         1.968748        -1.272911
 H         0.874159         1.077018        -3.451440
 H         2.498548         0.086794         0.146496
