19
Iteration:  1899charge 0 multiplicity 1
 C         3.150163         3.215984        -3.358290
 C         2.165611         2.493892        -2.491183
 C         2.595834         1.911510        -1.043784
 C         1.292755         1.483517        -0.395657
 C         0.660005         0.695402        -1.522067
 C         1.009959         1.729284        -2.708418
 O         0.771479         3.141693        -2.341913
 C         1.392876         0.744293         0.943851
 O         0.921542         1.080363         2.006850
 H         3.510018         4.035752        -2.679769
 H         3.967664         2.461215        -3.614197
 H         2.708242         3.491719        -4.281477
 H         3.241783         1.114482        -0.867280
 H         3.071509         2.704758        -0.490777
 H         0.581260         2.296198        -0.216432
 H         1.180012        -0.207599        -1.898267
 H        -0.473845         0.616421        -1.487973
 H         0.706066         1.549500        -3.870329
 H         1.770449        -0.268696         0.731816
