19
Iteration:  4805
 C         3.445351         2.980595        -2.444279
 C         1.924582         2.552029        -2.088524
 C         1.399168         3.126617        -0.789416
 C         0.536866         1.830280        -0.156119
 C         0.319691         0.826542        -1.337286
 C         1.340766         1.225087        -2.467992
 O         1.089138         2.542760        -3.209662
 C         1.511079         1.294022         0.906694
 O         2.145983         0.244754         0.835114
 H         3.673507         4.050727        -2.466913
 H         4.043864         2.559880        -1.642587
 H         3.653010         2.678636        -3.412162
 H         2.271002         3.448557        -0.306994
 H         0.709110         4.034744        -1.043718
 H        -0.357326         2.278331         0.247443
 H         0.524422        -0.329753        -1.101780
 H        -0.763756         1.002086        -1.629095
 H         1.744500         0.327875        -2.966366
 H         1.612752         1.909184         1.821951
