19
Iteration:  3831
 C         3.166870         3.191664        -3.034160
 C         2.073248         2.587468        -2.250692
 C         2.013997         2.630063        -0.677864
 C         0.905864         1.715857        -0.437154
 C         1.031789         0.575120        -1.569533
 C         1.305481         1.479099        -2.669794
 O         0.746387         2.744974        -2.658149
 C         0.879786         1.200064         0.999905
 O         1.699899         0.460524         1.453552
 H         3.012757         4.277704        -3.214071
 H         4.130063         3.150134        -2.425962
 H         3.460495         2.646443        -3.824328
 H         3.011600         2.147063        -0.378993
 H         1.748888         3.704372        -0.295022
 H        -0.066988         2.264611        -0.781252
 H         1.891705         0.008547        -1.307217
 H         0.273835        -0.107680        -1.711404
 H         1.467091         1.082537        -3.639764
 H        -0.015797         1.583509         1.549252
