19
Iteration:  1314charge 0 multiplicity 1
 C         3.247335         2.925521        -3.179547
 C         2.151316         2.369149        -2.383754
 C         2.409591         1.801673        -1.003963
 C         1.081510         1.442117        -0.401620
 C         0.436082         0.792182        -1.645889
 C         0.838719         1.902997        -2.807073
 O         0.971771         3.251404        -2.254017
 C         1.327830         0.742223         0.859542
 O         1.334199         1.253526         1.880445
 H         3.899496         3.585049        -2.621562
 H         4.017197         2.182446        -3.535022
 H         3.070861         3.432803        -4.071247
 H         2.986087         0.877960        -0.954587
 H         2.879909         2.580664        -0.307323
 H         0.576466         2.349780        -0.033048
 H         0.909860        -0.182631        -2.052663
 H        -0.614706         0.577938        -1.514008
 H         0.424610         1.783975        -3.862394
 H         1.616653        -0.333165         0.730606
