19
Iteration:  4401
 C         3.109452         3.392955        -2.945255
 C         2.081630         2.672732        -2.230665
 C         1.933506         2.922832        -0.751422
 C         1.007836         1.771723        -0.240810
 C         0.822449         0.695151        -1.424675
 C         1.447525         1.324907        -2.644952
 O         0.831100         2.578474        -3.019078
 C         1.561291         1.107842         0.975198
 O         1.122437         0.124663         1.504376
 H         2.592934         4.380327        -3.088313
 H         4.163888         3.481204        -2.628152
 H         3.268514         3.152980        -3.979394
 H         2.931053         2.973340        -0.254208
 H         1.401819         3.839991        -0.805105
 H         0.060824         2.268349        -0.032214
 H         1.444553        -0.185310        -1.156163
 H        -0.222745         0.499871        -1.620234
 H         1.696342         0.620856        -3.499157
 H         2.407408         1.636825         1.467636
