19
Iteration:  2085charge 0 multiplicity 1
 C         3.389450         2.602209        -3.100091
 C         2.121150         2.530249        -2.248200
 C         2.072520         2.780702        -0.774466
 C         0.933427         1.807877        -0.187919
 C         0.251790         1.088379        -1.444592
 C         1.020961         1.630739        -2.614292
 O         0.920602         3.040597        -2.930659
 C         1.607478         0.788804         0.657659
 O         1.478365         0.397893         1.848751
 H         3.878922         3.608956        -3.219215
 H         4.156379         1.860041        -2.754523
 H         3.155979         2.160526        -4.042905
 H         3.144757         2.710138        -0.228896
 H         1.668110         3.776073        -0.549891
 H         0.212278         2.435799         0.294445
 H         0.643695         0.033385        -1.619564
 H        -0.876533         1.132564        -1.462142
 H         1.075372         0.955459        -3.575164
 H         2.370567         0.177874         0.046795
