19
Iteration:  2824
 C         3.479855         2.780121        -2.842292
 C         2.095909         2.454575        -2.184557
 C         1.856236         2.793439        -0.784232
 C         0.838666         1.803949        -0.236074
 C         0.227968         0.998861        -1.452968
 C         1.098214         1.478528        -2.633828
 O         0.884004         2.907415        -3.068796
 C         1.510157         0.719679         0.611200
 O         1.762578         0.617237         1.785037
 H         3.651900         3.823758        -2.579609
 H         4.427732         2.359689        -2.506676
 H         3.535699         2.584474        -3.977708
 H         2.722153         2.809755        -0.024527
 H         1.527990         3.763034        -0.675303
 H         0.173577         2.415533         0.314498
 H         0.360405        -0.104421        -1.286728
 H        -0.737231         1.294190        -1.737065
 H         1.325170         0.859722        -3.554173
 H         1.964592         0.058311        -0.133633
