19
Iteration:   498charge 0 multiplicity 1
 C         3.037367         2.418191        -3.648934
 C         2.236009         2.479998        -2.418624
 C         2.713759         2.097871        -0.998943
 C         1.474724         1.798972        -0.153703
 C         0.362076         1.356706        -1.143529
 C         0.868345         1.908707        -2.488518
 O         1.043803         3.358569        -2.548410
 C         1.546154         0.768427         0.912296
 O         0.687695         0.457504         1.717850
 H         3.572967         3.363554        -3.958813
 H         3.721145         1.605772        -3.616036
 H         2.293121         2.206982        -4.475677
 H         3.448632         1.164460        -1.068814
 H         3.234476         2.982041        -0.573245
 H         1.139794         2.738168         0.328813
 H         0.227387         0.199296        -1.458315
 H        -0.591576         1.814528        -0.714856
 H         0.486806         1.520745        -3.571729
 H         2.462461         0.029192         0.725381
