19
Iteration:  2420charge 0 multiplicity 1
 C         3.411316         2.805673        -3.167471
 C         2.156073         2.451824        -2.338113
 C         2.154335         2.742797        -0.903470
 C         1.154947         1.799954        -0.182923
 C         0.418010         0.948826        -1.344837
 C         1.038251         1.572920        -2.564471
 O         0.781675         3.068142        -2.815981
 C         1.639520         0.710764         0.701284
 O         1.163319         0.513907         1.761492
 H         3.637543         3.855687        -3.278462
 H         4.110462         2.120034        -2.732739
 H         3.191557         2.399226        -4.091682
 H         3.211561         2.513472        -0.564354
 H         2.131152         3.886499        -0.655125
 H         0.488518         2.384539         0.508299
 H         0.409857        -0.169790        -1.341469
 H        -0.646213         1.190407        -1.122907
 H         0.976951         0.834432        -3.407261
 H         2.264402        -0.104530         0.189237
