19
Iteration:  1567
 C         3.440455         2.571425        -2.949213
 C         2.160829         2.456188        -2.255113
 C         1.992509         2.747887        -0.795441
 C         0.919024         1.805929        -0.120703
 C         0.018788         1.423038        -1.399648
 C         0.976466         1.614574        -2.592412
 O         1.011612         2.963456        -3.039027
 C         1.661449         0.552247         0.526691
 O         1.637680         0.445655         1.817909
 H         3.918460         3.460950        -2.657180
 H         4.057573         1.666120        -3.141011
 H         3.100665         2.828333        -4.014483
 H         3.018919         2.678420        -0.399301
 H         1.646626         3.850133        -0.541287
 H         0.450960         2.463302         0.637814
 H        -0.296468         0.419667        -1.288637
 H        -0.845446         1.976196        -1.658558
 H         0.836953         0.801404        -3.317758
 H         2.275757        -0.140157        -0.023077
