19
Iteration:   554charge 0 multiplicity 1
 C         3.136666         2.650490        -3.583956
 C         2.118909         2.344796        -2.512107
 C         2.720675         1.895498        -1.157730
 C         1.405427         1.720624        -0.329892
 C         0.413247         1.071381        -1.302177
 C         0.717791         1.878875        -2.508938
 O         1.143932         3.341092        -2.262642
 C         1.510395         0.860848         0.915925
 O         0.709220         0.777381         1.842317
 H         3.883584         3.264459        -3.036794
 H         3.659004         1.849433        -4.026775
 H         2.729700         3.342368        -4.414274
 H         3.154266         0.811217        -1.288865
 H         3.570789         2.434485        -0.740167
 H         0.993819         2.653599         0.041097
 H         0.723146         0.000650        -1.730344
 H        -0.625290         1.001212        -0.906976
 H         0.015008         1.932383        -3.380366
 H         2.525951         0.377053         1.010187
