19
Iteration:  4170
 C         3.210174         3.286502        -2.921479
 C         2.070587         2.638739        -2.284379
 C         2.008792         2.597493        -0.746760
 C         0.798148         1.652534        -0.422156
 C         0.961127         0.549413        -1.539157
 C         1.390958         1.407029        -2.804527
 O         0.737947         2.753150        -2.768456
 C         1.045594         1.313823         1.052151
 O         1.597629         0.358539         1.531748
 H         3.128313         4.386360        -2.754552
 H         4.203972         2.818619        -2.571949
 H         3.143889         3.166367        -3.930717
 H         2.904547         2.294578        -0.324394
 H         2.016276         3.571207        -0.253142
 H        -0.169062         2.085974        -0.494402
 H         2.023867         0.291486        -1.211614
 H         0.173367        -0.158895        -1.647052
 H         1.312205         0.936502        -3.804737
 H         0.642555         2.065290         1.795419
