19
Iteration:  4736charge 0 multiplicity 1
 C         3.403101         3.051165        -2.597420
 C         2.015555         2.602362        -2.156676
 C         1.418490         3.069539        -0.856459
 C         0.721967         1.827495        -0.192338
 C         0.516365         0.845783        -1.332218
 C         1.321851         1.358030        -2.523213
 O         0.998027         2.576649        -3.193601
 C         1.502910         1.235500         0.947096
 O         1.893018         0.095397         1.106719
 H         3.496363         4.099532        -2.860274
 H         4.154125         2.793269        -1.805427
 H         3.393977         2.586940        -3.546331
 H         2.111667         3.468587        -0.218869
 H         0.656622         3.808378        -0.969263
 H        -0.185202         1.922580         0.364387
 H         0.968100        -0.060205        -0.960682
 H        -0.566228         0.680540        -1.571589
 H         1.795653         0.522214        -3.138657
 H         1.710292         2.127879         1.623859
