19
Iteration:   453charge 0 multiplicity 1
 C         3.200749         2.252059        -3.487938
 C         2.138201         2.304498        -2.405848
 C         2.619590         2.235312        -1.000825
 C         1.391028         1.929428        -0.150854
 C         0.157820         1.556224        -1.121191
 C         0.690994         1.899830        -2.418984
 O         1.130417         3.343649        -2.593686
 C         1.615288         0.726029         0.738076
 O         0.911675         0.335100         1.635148
 H         3.799459         3.211043        -3.440685
 H         3.948908         1.454726        -3.312182
 H         2.870446         2.271430        -4.498597
 H         3.639423         1.783185        -0.778404
 H         2.925025         3.288129        -0.810473
 H         1.167281         2.818640         0.516441
 H         0.062584         0.362575        -1.014797
 H        -0.868424         2.059045        -1.068032
 H         0.133471         1.499774        -3.429725
 H         2.448403         0.168145         0.383688
