19
Iteration:  1082
 C         3.420946         2.426876        -3.246167
 C         2.212096         2.407302        -2.386402
 C         2.261998         2.781214        -0.779871
 C         1.185622         1.965426        -0.138705
 C         0.133330         1.468636        -1.210859
 C         0.860646         1.650633        -2.519756
 O         1.000770         3.024292        -2.817965
 C         1.679714         0.605283         0.645234
 O         1.162507         0.301213         1.654327
 H         3.843189         3.451298        -3.295089
 H         4.075014         1.661086        -2.929533
 H         2.955835         2.187007        -4.306334
 H         3.202272         2.462758        -0.427175
 H         2.139459         3.852245        -0.881193
 H         0.648423         2.466903         0.700658
 H        -0.380988         0.502314        -1.133876
 H        -0.729823         2.170050        -1.206339
 H         0.591611         0.933905        -3.331531
 H         2.564799         0.046148         0.098526
