19
Iteration:   362
 C         3.281500         2.014849        -3.320282
 C         2.137568         2.324398        -2.322796
 C         2.426977         2.460242        -0.855987
 C         1.161865         1.890839        -0.124778
 C         0.030776         1.710841        -1.219904
 C         0.720288         1.982205        -2.486103
 O         1.183976         3.337623        -2.699642
 C         1.371926         0.550205         0.511286
 O         1.476060         0.343976         1.692165
 H         4.008627         2.757562        -3.208145
 H         3.742686         1.029818        -3.184418
 H         2.946286         2.161067        -4.365229
 H         3.464185         2.072589        -0.580272
 H         2.608261         3.539048        -0.560217
 H         0.967608         2.547080         0.738120
 H        -0.585637         0.711979        -1.282167
 H        -0.714373         2.548209        -1.069711
 H         0.368578         1.518454        -3.345213
 H         1.647444        -0.374204        -0.164246
