19
Iteration:  1256
 C         3.220922         2.926922        -3.362831
 C         2.168322         2.446692        -2.399880
 C         2.647241         1.925180        -1.046341
 C         1.203606         1.412716        -0.362444
 C         0.394504         0.907525        -1.582605
 C         0.892891         1.818284        -2.714577
 O         0.976823         3.228484        -2.312313
 C         1.222590         0.620639         0.907010
 O         1.177207         1.177875         1.948477
 H         3.432202         3.926365        -2.904306
 H         4.071046         2.310722        -3.288505
 H         2.676252         3.049389        -4.350539
 H         3.379727         1.041569        -1.208828
 H         3.108557         2.579804        -0.335002
 H         0.787823         2.281916         0.160465
 H         0.765525        -0.077439        -1.947785
 H        -0.724813         0.989746        -1.632227
 H         0.389047         1.810872        -3.691156
 H         1.222156        -0.471733         0.814506
