19
Iteration:  2679charge 0 multiplicity 1
 C         3.226203         2.978486        -3.307082
 C         2.128604         2.530993        -2.404695
 C         2.230151         2.521822        -0.762985
 C         1.121569         1.609397        -0.274880
 C         0.591087         0.910495        -1.516318
 C         1.160941         1.556935        -2.813218
 O         0.820301         3.039545        -2.774736
 C         1.561495         0.625861         0.920820
 O         1.090810         0.761536         2.061078
 H         3.910774         3.836949        -3.030959
 H         3.836085         2.102881        -3.630207
 H         2.771159         3.264133        -4.245529
 H         3.285099         2.471494        -0.390423
 H         2.151820         3.544148        -0.415574
 H         0.307088         2.242118         0.095291
 H         0.801950        -0.165424        -1.431049
 H        -0.540475         0.891575        -1.466186
 H         1.023473         1.025771        -3.698472
 H         2.199465        -0.220290         0.576740
