19
Iteration:  4888
 C         3.420081         2.881474        -2.392679
 C         1.991139         2.542259        -1.983649
 C         1.348204         3.089539        -0.723480
 C         0.504300         1.896705        -0.154367
 C         0.322448         0.896977        -1.323269
 C         1.398704         1.209909        -2.402997
 O         1.085545         2.407202        -3.141683
 C         1.434483         1.268337         0.921068
 O         2.199283         0.436527         0.485475
 H         3.479770         3.954983        -2.670814
 H         4.034211         2.767348        -1.447891
 H         3.897078         2.259927        -3.093366
 H         2.302320         3.357560        -0.117653
 H         0.891855         3.989040        -0.895595
 H        -0.451038         2.298754         0.241253
 H         0.349185        -0.064198        -1.040602
 H        -0.671001         1.077377        -1.733705
 H         1.772095         0.361060        -2.997786
 H         1.410427         1.661582         1.942878
