19
Iteration:    94charge 0 multiplicity 1
 C         3.246576         2.500051        -3.439287
 C         2.218792         2.448742        -2.358550
 C         2.626011         2.327622        -0.845664
 C         1.364952         1.868419        -0.221545
 C         0.421736         1.129563        -1.165345
 C         0.858668         1.761946        -2.472411
 O         0.931335         3.262365        -2.545845
 C         1.521960         1.142374         1.021044
 O         0.748810         0.186745         1.219536
 H         3.726864         3.523721        -3.319822
 H         4.062749         1.756723        -3.315633
 H         2.819394         2.494306        -4.414632
 H         3.460815         1.473179        -0.777677
 H         2.972550         3.271697        -0.339484
 H         0.821978         2.798479         0.104849
 H         0.554693        -0.089003        -1.216988
 H        -0.672660         1.351543        -0.932127
 H         0.545241         1.300888        -3.484281
 H         2.277320         1.399378         1.721826
