19
Iteration:  2078
 C         3.389316         2.591560        -3.129883
 C         2.150028         2.512834        -2.293050
 C         2.007962         2.751548        -0.799241
 C         0.931868         1.790566        -0.189645
 C         0.302531         1.064982        -1.450410
 C         1.047404         1.665056        -2.594124
 O         0.936772         3.038884        -2.892397
 C         1.655754         0.753158         0.703334
 O         1.441343         0.449406         1.814051
 H         3.692945         3.628848        -3.079313
 H         4.197209         2.055538        -2.731845
 H         3.081373         2.257408        -4.183599
 H         2.894021         2.504822        -0.230571
 H         1.682095         3.739161        -0.511143
 H         0.265174         2.409340         0.417088
 H         0.443251        -0.008009        -1.517993
 H        -0.787329         1.378516        -1.483387
 H         0.866874         1.110189        -3.448217
 H         2.375255         0.167209         0.091366
