19
Iteration:  3793
 C         3.231963         3.345759        -2.951343
 C         2.099912         2.662512        -2.261711
 C         1.980683         2.627334        -0.775403
 C         0.777428         1.733175        -0.337404
 C         0.763077         0.687900        -1.482225
 C         1.377481         1.348923        -2.697107
 O         0.817841         2.681038        -2.965801
 C         0.955321         1.093819         1.070919
 O         1.815553         0.432071         1.543261
 H         3.113149         4.430241        -2.789509
 H         4.133012         3.151418        -2.421081
 H         3.144265         3.062483        -4.103525
 H         2.953380         2.208650        -0.302043
 H         2.063535         3.464904        -0.116567
 H        -0.040347         2.331562        -0.169970
 H         1.472484        -0.185479        -1.341439
 H        -0.286802         0.303681        -1.857603
 H         1.598085         0.766766        -3.656893
 H         0.070830         1.258602         1.746353
