19
Iteration:  3030
 C         3.494350         2.706507        -2.785383
 C         2.054654         2.606161        -2.244655
 C         1.821956         2.963900        -0.819361
 C         0.955385         1.791578        -0.163816
 C         0.357340         1.078051        -1.368639
 C         1.175471         1.500425        -2.633279
 O         0.763712         2.829586        -3.143602
 C         1.666306         0.655120         0.548957
 O         1.593088         0.535419         1.773224
 H         3.928867         3.689472        -2.644150
 H         4.089566         1.964393        -2.239561
 H         3.358087         2.435145        -3.956888
 H         2.717859         3.040919        -0.286567
 H         1.355983         4.017733        -0.623248
 H         0.132338         2.123524         0.439414
 H         0.101832        -0.019418        -1.205508
 H        -0.745843         1.255760        -1.459890
 H         1.317284         0.699075        -3.452557
 H         2.309431        -0.056638        -0.031164
