19
Iteration:  3145
 C         3.324790         2.954920        -3.118590
 C         2.084105         2.609596        -2.353707
 C         2.194397         2.833262        -0.762412
 C         1.187887         1.826524        -0.242185
 C         0.494940         0.923338        -1.399719
 C         1.099805         1.458925        -2.608432
 O         0.716752         2.785240        -2.955889
 C         1.663155         0.690157         0.746659
 O         1.110522         0.541092         1.854452
 H         3.579178         4.049226        -3.090375
 H         4.279736         2.509638        -2.817092
 H         3.255038         2.862256        -4.114195
 H         3.287631         2.419533        -0.544499
 H         2.129955         3.813241        -0.373297
 H         0.325964         2.414546         0.154044
 H         0.628046        -0.168783        -1.323948
 H        -0.572087         1.006659        -1.251935
 H         1.367208         0.895621        -3.439790
 H         2.450625         0.021733         0.315627
