19
Iteration:  2326
 C         3.371924         2.645545        -2.960724
 C         2.091250         2.461943        -2.264666
 C         2.085305         2.848623        -0.853387
 C         1.064389         1.843000        -0.215708
 C         0.245085         1.165634        -1.350053
 C         0.992666         1.528885        -2.526944
 O         0.927995         2.950261        -2.868334
 C         1.595573         0.730301         0.524204
 O         1.447161         0.446842         1.677204
 H         3.716095         3.678916        -2.704136
 H         4.013958         1.781242        -2.522214
 H         3.346178         2.608625        -4.145576
 H         2.983860         2.985491        -0.317250
 H         1.614819         3.775522        -0.800446
 H         0.416181         2.286208         0.481144
 H         0.293695         0.055986        -1.269084
 H        -0.797108         1.322605        -1.511473
 H         1.189496         0.856294        -3.318227
 H         2.441446         0.216770        -0.040118
