19
Iteration:  3727
 C         3.344355         3.084242        -2.813752
 C         2.085490         2.592392        -2.188879
 C         1.812761         2.772097        -0.641939
 C         0.593636         1.795944        -0.286919
 C         0.655954         0.695984        -1.484939
 C         1.439228         1.395812        -2.584212
 O         0.838576         2.663761        -2.924757
 C         0.932050         1.011026         0.944951
 O         2.076941         0.627198         1.200374
 H         3.422107         4.135483        -2.546611
 H         4.192461         2.525950        -2.547871
 H         3.180851         3.255446        -3.954198
 H         2.877928         2.370963        -0.073128
 H         1.575087         3.845946        -0.420293
 H        -0.357196         2.216413        -0.309892
 H         1.286577        -0.132629        -1.069444
 H        -0.418128         0.431226        -1.859221
 H         1.720389         0.688403        -3.450228
 H         0.104925         0.442887         1.498584
