19
Iteration:   474charge 0 multiplicity 1
 C         3.142172         2.347547        -3.647477
 C         2.188403         2.320468        -2.438175
 C         2.642202         2.268121        -1.004583
 C         1.389587         1.977536        -0.092992
 C         0.366557         1.489811        -1.064903
 C         0.715855         1.952962        -2.507803
 O         1.109631         3.302157        -2.597936
 C         1.550108         0.705570         0.847471
 O         0.782473         0.320939         1.696641
 H         3.636798         3.335987        -3.646591
 H         3.961809         1.602278        -3.511949
 H         2.739657         2.221600        -4.593862
 H         3.176436         1.198147        -0.829143
 H         3.402881         3.097249        -0.853526
 H         1.006812         2.687117         0.691253
 H         0.286777         0.279256        -1.152664
 H        -0.625735         1.927744        -0.681808
 H         0.320045         1.535479        -3.559736
 H         2.442563         0.024941         0.502283
