19
Iteration:  1759charge 0 multiplicity 1
 C         3.266941         2.724728        -3.315680
 C         2.198625         2.517097        -2.332546
 C         2.303455         2.665913        -0.810878
 C         1.153170         1.810354        -0.237134
 C         0.379105         1.072102        -1.376291
 C         1.013392         1.652507        -2.644285
 O         0.858620         2.995337        -2.700077
 C         1.651117         0.750582         0.729539
 O         1.083195         0.454255         1.826204
 H         3.991792         3.522175        -3.016470
 H         3.820940         1.798872        -3.328831
 H         2.876543         2.637728        -4.279481
 H         3.300377         2.468651        -0.257452
 H         2.143418         3.659738        -0.408717
 H         0.547494         2.550044         0.217510
 H         0.583380        -0.020163        -1.324952
 H        -0.731309         1.337225        -1.410440
 H         0.947430         1.099635        -3.663247
 H         2.425404         0.045765         0.340188
