19
Iteration:  3327
 C         3.020623         3.247162        -3.416931
 C         2.107569         2.539429        -2.395699
 C         2.525775         2.344471        -0.998469
 C         1.302604         1.610058        -0.243835
 C         0.945855         0.695902        -1.406181
 C         1.107964         1.549278        -2.678629
 O         0.747561         2.903310        -2.581548
 C         1.557183         0.920705         1.042456
 O         0.641423         0.721008         1.797726
 H         3.154876         4.234479        -2.978902
 H         4.063221         2.802346        -3.326119
 H         2.538333         3.371993        -4.347803
 H         3.429644         1.648601        -1.090043
 H         2.751852         3.391254        -0.516665
 H         0.553553         2.362092        -0.101159
 H         1.545589        -0.214522        -1.359303
 H        -0.081059         0.492500        -1.278296
 H         1.042823         1.091393        -3.615427
 H         2.511197         0.557371         1.363369
