19
Iteration:  3004
 C         3.431054         2.777490        -2.895400
 C         2.106977         2.459038        -2.209248
 C         1.732436         2.945481        -0.775693
 C         0.863382         1.810233        -0.196418
 C         0.186990         1.190513        -1.443225
 C         1.139912         1.377437        -2.596597
 O         0.998733         2.848730        -3.090272
 C         1.629591         0.722731         0.602714
 O         1.725526         0.481664         1.775619
 H         3.709808         3.903480        -2.734869
 H         4.250524         2.170129        -2.357863
 H         3.326432         2.604679        -3.917502
 H         2.676504         2.999236        -0.191397
 H         1.164377         3.859249        -0.710998
 H        -0.094141         2.189701         0.387177
 H         0.169315         0.144180        -1.225549
 H        -0.908613         1.232758        -1.609140
 H         1.302132         0.656652        -3.294228
 H         2.321185         0.163524        -0.122022
