19
Iteration:  2040charge 0 multiplicity 1
 C         3.317069         2.781044        -3.095317
 C         2.154976         2.523222        -2.300616
 C         2.212923         2.604537        -0.824384
 C         1.115204         1.729577        -0.287640
 C         0.241163         1.083391        -1.490650
 C         0.989294         1.632245        -2.633111
 O         0.856640         2.952171        -2.830376
 C         1.656435         0.694709         0.746876
 O         1.305005         0.593598         1.860320
 H         3.520193         3.871382        -2.901466
 H         4.261439         2.181480        -2.798231
 H         3.294820         2.574976        -4.143475
 H         3.359475         2.238707        -0.464051
 H         2.229268         3.700754        -0.485787
 H         0.337293         2.282383         0.308467
 H         0.121168        -0.079389        -1.416310
 H        -0.778529         1.530912        -1.606420
 H         0.946453         1.029811        -3.654722
 H         2.445944        -0.035431         0.336278
