19
Iteration:  4400charge 0 multiplicity 1
 C         3.102569         3.390986        -2.939122
 C         2.082837         2.662692        -2.228342
 C         1.938207         2.931073        -0.749200
 C         1.009004         1.767848        -0.244095
 C         0.816327         0.695727        -1.433715
 C         1.448059         1.317949        -2.641747
 O         0.830806         2.576131        -3.019063
 C         1.562652         1.120897         0.980644
 O         1.124434         0.123793         1.504753
 H         2.585472         4.443981        -3.092444
 H         4.207233         3.492261        -2.644504
 H         3.258971         3.155784        -3.958165
 H         2.913967         2.956435        -0.260886
 H         1.418382         3.809540        -0.778530
 H         0.062104         2.268208        -0.035186
 H         1.390835        -0.176991        -1.178523
 H        -0.227936         0.499748        -1.648450
 H         1.732659         0.656254        -3.523884
 H         2.423950         1.625778         1.435599
