19
Iteration:  3854
 C         3.234540         3.272099        -3.072203
 C         2.081203         2.601714        -2.301604
 C         2.098794         2.664144        -0.699648
 C         0.850416         1.638058        -0.387373
 C         1.027356         0.568450        -1.442857
 C         1.353344         1.477773        -2.700775
 O         0.700278         2.781065        -2.707532
 C         0.833699         1.173720         1.009949
 O         1.671601         0.404797         1.480987
 H         3.037794         4.367052        -3.311199
 H         4.292066         3.155840        -2.737533
 H         3.314678         2.658258        -3.926758
 H         3.085344         2.219361        -0.408889
 H         1.741526         3.705567        -0.378683
 H        -0.190233         2.125991        -0.680121
 H         1.834921        -0.065732        -1.090634
 H         0.238784        -0.111647        -1.623135
 H         1.394863         1.053777        -3.720887
 H         0.125772         1.762400         1.663852
