19
Iteration:   987
 C         3.420604         2.109284        -3.104523
 C         2.145050         2.366140        -2.177059
 C         2.165187         2.965874        -0.751450
 C         1.088354         2.055113        -0.127555
 C         0.064418         1.512925        -1.234454
 C         0.741918         1.647245        -2.494946
 O         1.106050         3.066812        -2.849205
 C         1.723614         0.720478         0.462994
 O         1.378467         0.224824         1.489005
 H         3.955434         3.034171        -3.182809
 H         4.082142         1.323166        -2.657488
 H         3.163399         1.833937        -4.037629
 H         2.922283         2.844359        -0.063456
 H         1.613789         3.914663        -0.753850
 H         0.789016         2.609756         0.730394
 H        -0.195756         0.477216        -1.095055
 H        -0.909781         1.944239        -1.242302
 H         0.671925         0.999306        -3.395607
 H         2.546684         0.436265        -0.390813
