19
Iteration:   460
 C         3.198428         2.303944        -3.507013
 C         2.132491         2.281198        -2.477195
 C         2.579210         2.250482        -1.019994
 C         1.422033         1.958878        -0.070437
 C         0.225702         1.523521        -1.103428
 C         0.718857         1.920407        -2.476920
 O         1.153116         3.321853        -2.585871
 C         1.586337         0.734548         0.768580
 O         0.865298         0.316156         1.654726
 H         3.704978         3.239090        -3.546138
 H         3.959095         1.489941        -3.374557
 H         2.683797         2.245783        -4.470497
 H         3.557574         1.607148        -0.939602
 H         2.982930         3.249120        -0.659420
 H         1.104078         2.932871         0.317695
 H         0.052727         0.443303        -1.034073
 H        -0.753553         1.930310        -0.847851
 H         0.136810         1.538895        -3.233688
 H         2.485475         0.057584         0.363408
