19
Iteration:  4773charge 0 multiplicity 1
 C         3.434236         2.889955        -2.410637
 C         1.956873         2.597043        -2.079354
 C         1.340720         3.084045        -0.783664
 C         0.647298         1.810248        -0.226743
 C         0.540360         0.892646        -1.406593
 C         1.338221         1.329014        -2.551421
 O         0.889407         2.529254        -3.105293
 C         1.578663         1.334476         0.840246
 O         1.993033         0.219230         0.963480
 H         3.794206         3.867135        -2.720938
 H         4.084335         2.466460        -1.686592
 H         3.763254         2.201587        -3.203535
 H         2.269154         3.420213        -0.207168
 H         0.624159         3.923987        -1.163760
 H        -0.350561         2.112673         0.137132
 H         0.870199        -0.232066        -1.079231
 H        -0.507110         0.738391        -1.780199
 H         1.958057         0.774221        -3.258401
 H         1.927293         2.088745         1.642888
