19
Iteration:  3625
 C         3.364983         3.068697        -2.732403
 C         2.106630         2.528295        -2.147040
 C         1.751446         2.703812        -0.638419
 C         0.642447         1.637814        -0.298889
 C         0.310089         0.900478        -1.661068
 C         1.288961         1.338922        -2.667208
 O         0.935499         2.714311        -3.006751
 C         1.223495         0.665304         0.740715
 O         2.117364         0.982132         1.546294
 H         3.445532         4.139797        -2.410999
 H         4.249739         2.564236        -2.227363
 H         3.366226         2.936940        -3.748168
 H         2.718092         2.620441         0.012952
 H         1.509699         3.745386        -0.356278
 H        -0.174087         2.198499         0.151378
 H         0.379123        -0.246776        -1.465596
 H        -0.677575         1.135301        -2.073258
 H         1.591567         0.630361        -3.371305
 H         1.086888        -0.372674         0.721193
