19
Iteration:  3347charge 0 multiplicity 1
 C         3.201315         3.189241        -3.296764
 C         2.052292         2.556551        -2.396739
 C         2.485235         2.447376        -0.936504
 C         1.296369         1.614253        -0.306708
 C         0.835868         0.613309        -1.439517
 C         1.032154         1.505303        -2.755368
 O         0.672973         2.943599        -2.594319
 C         1.562115         0.953782         0.993467
 O         0.762409         0.716091         1.856521
 H         3.207725         4.216224        -3.078745
 H         4.183983         2.778389        -3.116002
 H         3.074008         3.086153        -4.408997
 H         3.456171         1.874178        -0.751246
 H         2.679609         3.471309        -0.355032
 H         0.436572         2.414997        -0.282859
 H         1.671711        -0.044188        -1.616899
 H        -0.094006         0.112760        -1.320737
 H         0.738253         1.031633        -3.669031
 H         2.637621         0.558584         1.105332
