19
Iteration:  4564charge 0 multiplicity 1
 C         3.077588         3.517377        -3.083650
 C         2.156660         2.625830        -2.343580
 C         2.088831         2.573621        -0.723918
 C         0.958417         1.634107        -0.390315
 C         1.089168         0.562514        -1.495689
 C         1.453847         1.367161        -2.778708
 O         0.738588         2.680412        -2.699216
 C         1.010302         1.332322         1.090403
 O         1.335541         0.245466         1.574708
 H         2.860439         4.500163        -2.572848
 H         4.146324         3.190695        -3.218382
 H         2.738748         3.676318        -4.070539
 H         3.027991         2.050956        -0.470592
 H         1.946490         3.553378        -0.359359
 H         0.143413         2.390038        -0.583477
 H         1.820293        -0.088354        -1.126598
 H         0.222775         0.002551        -1.806058
 H         1.654571         0.889666        -3.769347
 H         0.805044         2.246806         1.703901
