19
Iteration:  1357charge 0 multiplicity 1
 C         3.300842         2.888693        -3.266990
 C         2.146194         2.509942        -2.351848
 C         2.452126         2.059822        -0.884703
 C         1.107248         1.556725        -0.375553
 C         0.383033         1.016169        -1.544530
 C         0.987140         1.720494        -2.762102
 O         0.867481         3.167169        -2.581971
 C         1.220518         0.597986         0.833829
 O         1.435600         0.987339         2.021137
 H         3.982261         3.578251        -2.754213
 H         3.719302         2.031498        -3.730288
 H         2.887424         3.416840        -4.053145
 H         3.222541         1.256253        -0.981325
 H         2.868610         2.900175        -0.237505
 H         0.621523         2.385750         0.116116
 H         0.371006        -0.078865        -1.414912
 H        -0.659402         1.285177        -1.603707
 H         0.869147         1.592528        -3.857055
 H         0.682025        -0.406667         0.760037
