19
Iteration:  3359
 C         3.214930         3.116232        -3.247003
 C         2.092126         2.570238        -2.386100
 C         2.415833         2.454815        -0.915461
 C         1.207754         1.629262        -0.365606
 C         0.849037         0.672819        -1.515812
 C         1.016129         1.550692        -2.724624
 O         0.668150         2.891987        -2.586152
 C         1.579167         0.936854         0.930134
 O         0.840813         0.722377         1.904360
 H         3.283018         4.170738        -3.136735
 H         4.163066         2.663122        -2.846706
 H         3.097919         2.892512        -4.290370
 H         3.509367         2.087849        -0.938370
 H         2.338782         3.568336        -0.486543
 H         0.339452         2.305765        -0.053167
 H         1.481502        -0.204431        -1.488473
 H        -0.093016         0.249145        -1.328416
 H         1.089364         1.252857        -3.721675
 H         2.691096         0.624740         0.936064
