19
Iteration:   143charge 0 multiplicity 1
 C         3.247591         2.511979        -3.462940
 C         2.226758         2.333644        -2.364161
 C         2.528302         2.109587        -0.819040
 C         1.129151         1.887763        -0.178406
 C         0.302602         1.316127        -1.265043
 C         0.854125         1.902657        -2.551323
 O         1.126349         3.328214        -2.665691
 C         1.149252         1.190646         1.194144
 O         1.277112         0.015645         1.347858
 H         3.683224         3.494744        -3.380787
 H         4.043446         1.763414        -3.423717
 H         2.729037         2.351854        -4.501962
 H         3.215063         1.354368        -0.707771
 H         3.027457         3.032450        -0.531326
 H         0.745535         2.915536        -0.041279
 H         0.424277         0.283465        -1.332625
 H        -0.734519         1.579924        -1.172773
 H         0.560559         1.479431        -3.457244
 H         1.175442         1.818362         2.024040
