19
Iteration:  4412
 C         3.173162         3.423065        -3.060418
 C         2.079636         2.630286        -2.309368
 C         1.854900         2.905254        -0.816856
 C         1.003884         1.787287        -0.249677
 C         0.913479         0.731817        -1.323589
 C         1.430066         1.386340        -2.613522
 O         0.820679         2.614656        -2.998284
 C         1.562587         1.090651         0.984612
 O         1.078469         0.066781         1.508739
 H         2.888570         4.535271        -3.114345
 H         3.970875         3.436900        -2.291450
 H         3.320825         2.897627        -4.005507
 H         2.824078         3.032757        -0.265971
 H         1.454229         3.851259        -0.551419
 H         0.008805         2.064544         0.115061
 H         1.523889        -0.181197        -1.100571
 H        -0.058854         0.252021        -1.326823
 H         1.684620         0.675452        -3.447710
 H         2.347132         1.655160         1.498374
