19
Iteration:  2095
 C         3.384821         2.552991        -3.045781
 C         2.098179         2.564573        -2.255740
 C         2.104823         2.835367        -0.702157
 C         0.920071         1.866133        -0.197730
 C         0.298717         1.105872        -1.427403
 C         0.955021         1.606830        -2.725988
 O         0.900886         3.034134        -2.962602
 C         1.573727         0.710393         0.682650
 O         1.512981         0.394592         1.806001
 H         3.919947         3.553051        -3.214124
 H         4.101737         1.830268        -2.480769
 H         3.166110         2.321956        -4.050601
 H         3.244754         2.696777        -0.303233
 H         1.930466         3.929330        -0.677310
 H         0.122858         2.310063         0.412371
 H         0.461775         0.009348        -1.045714
 H        -0.802084         0.995615        -1.449303
 H         1.398148         0.872521        -3.553937
 H         2.381140         0.329550        -0.036492
