19
Iteration:  4712
 C         3.310270         3.195969        -2.713169
 C         1.984086         2.576490        -2.179026
 C         1.564334         3.049536        -0.745491
 C         0.724491         1.875286        -0.199694
 C         0.480548         0.844396        -1.424330
 C         1.420920         1.297476        -2.484935
 O         0.979049         2.473520        -3.226710
 C         1.541782         1.242259         1.067571
 O         1.792020         0.061219         1.132042
 H         3.320181         4.304240        -2.716330
 H         4.029298         2.897501        -1.935913
 H         3.370968         2.986069        -3.874646
 H         2.441400         3.173560        -0.105771
 H         1.002302         3.912124        -0.700324
 H        -0.289143         2.133699         0.172403
 H         0.638867        -0.090959        -1.054894
 H        -0.494095         0.970144        -1.864890
 H         2.170052         0.664641        -3.042777
 H         1.746235         2.087423         1.780748
