19
Iteration:  2381
 C         3.308589         2.730084        -3.095907
 C         2.085556         2.505220        -2.306881
 C         2.112134         2.728557        -0.818910
 C         1.069490         1.816533        -0.176345
 C         0.262818         1.148132        -1.372579
 C         1.082374         1.565016        -2.655744
 O         0.906867         3.040123        -3.021862
 C         1.707676         0.718463         0.804706
 O         1.323417         0.358787         1.856164
 H         3.539949         3.803834        -3.319957
 H         4.309915         2.432196        -2.692366
 H         3.091223         2.165629        -4.099393
 H         3.072012         2.425711        -0.406165
 H         1.993923         3.756363        -0.633462
 H         0.362383         2.324633         0.425667
 H         0.015362         0.084666        -1.157710
 H        -0.648913         1.632059        -1.676788
 H         1.197722         0.966799        -3.515975
 H         2.410636         0.089207         0.219821
