19
Iteration:  2813
 C         3.449048         2.792133        -2.906434
 C         2.140232         2.562545        -2.283732
 C         1.861668         2.795875        -0.724131
 C         0.838042         1.713653        -0.218529
 C         0.264779         1.030208        -1.465627
 C         1.154913         1.528694        -2.599202
 O         0.894954         2.890022        -3.052994
 C         1.538537         0.670157         0.607685
 O         1.705340         0.647091         1.819550
 H         3.705615         3.837582        -3.035459
 H         4.104752         2.158748        -2.315950
 H         3.382674         2.422817        -3.993594
 H         2.832394         2.802564        -0.108943
 H         1.380520         3.703486        -0.685666
 H         0.052062         2.157500         0.345571
 H         0.128908        -0.073831        -1.422236
 H        -0.741904         1.334138        -1.612350
 H         1.267321         0.759937        -3.394545
 H         1.903564        -0.200691         0.064569
