19
Iteration:  1894
 C         3.111212         3.222133        -3.349943
 C         2.179464         2.501746        -2.449501
 C         2.634018         1.963827        -1.026412
 C         1.305792         1.449535        -0.418785
 C         0.597953         0.751916        -1.505055
 C         0.995474         1.688243        -2.738473
 O         0.811193         3.093098        -2.352943
 C         1.370133         0.704824         0.889180
 O         0.914273         1.098812         2.020206
 H         3.461664         3.988182        -2.683344
 H         3.955981         2.617235        -3.649810
 H         2.632579         3.509113        -4.329556
 H         3.393618         1.078146        -0.895435
 H         3.159995         2.788690        -0.459623
 H         0.683140         2.374745        -0.265814
 H         1.130058        -0.153934        -1.875973
 H        -0.456615         0.702687        -1.368950
 H         0.776660         1.609268        -3.711982
 H         1.882812        -0.341275         0.808194
