19
Iteration:  1215
 C         3.199383         2.877630        -3.388654
 C         2.209441         2.405681        -2.454922
 C         2.569629         2.053482        -0.968618
 C         1.198165         1.785826        -0.214626
 C         0.382992         1.067308        -1.509322
 C         0.944185         1.780867        -2.709119
 O         0.936700         3.164566        -2.509912
 C         1.252915         0.678638         0.881582
 O         1.158308         0.794106         2.024274
 H         3.822870         3.749730        -3.146337
 H         3.887100         2.062583        -3.567838
 H         2.919374         3.047938        -4.386261
 H         3.098557         1.124489        -1.044386
 H         3.269199         2.798091        -0.564102
 H         0.798480         2.760922         0.104141
 H         0.731477        -0.012032        -1.424849
 H        -0.702232         0.961699        -1.505220
 H         0.668729         1.363080        -3.721182
 H         1.471817        -0.357040         0.446821
