19
Iteration:  3612
 C         3.391385         3.113116        -2.736411
 C         2.106027         2.451168        -2.129861
 C         1.762416         2.691011        -0.639379
 C         0.720850         1.650278        -0.298125
 C         0.269180         0.890182        -1.562660
 C         1.322755         1.370997        -2.603672
 O         0.923877         2.700671        -3.016816
 C         1.333443         0.647220         0.629255
 O         2.012846         1.003307         1.568284
 H         3.530383         4.231279        -2.575370
 H         4.418984         2.533957        -2.495764
 H         3.273427         3.099642        -3.860185
 H         2.604342         2.488849         0.038073
 H         1.271155         3.743872        -0.612172
 H        -0.292240         1.927950         0.265352
 H         0.180946        -0.293708        -1.467474
 H        -0.673281         1.310156        -1.924910
 H         1.576904         0.783262        -3.523840
 H         0.850354        -0.243633         0.443358
