19
Iteration:    75
 C         3.198306         2.605560        -3.380933
 C         2.180365         2.427911        -2.341399
 C         2.664989         2.375789        -0.964816
 C         1.337970         1.965996        -0.126225
 C         0.511530         1.199276        -1.224847
 C         0.836832         1.757229        -2.552721
 O         0.977539         3.161277        -2.571432
 C         1.562340         0.953151         0.989410
 O         0.622256         0.237891         1.363036
 H         3.892487         3.521714        -3.212106
 H         3.796631         1.680906        -3.382164
 H         2.743294         2.604466        -4.335147
 H         3.428385         1.614269        -0.874248
 H         3.155010         3.314547        -0.657887
 H         0.850116         2.831103         0.346765
 H         0.967496         0.211845        -1.395989
 H        -0.552933         1.038409        -0.965185
 H         0.574742         1.125457        -3.504870
 H         2.588309         0.865515         1.562391
