19
Iteration:  4044charge 0 multiplicity 1
 C         3.253141         3.371696        -2.874307
 C         2.065534         2.593242        -2.244585
 C         1.811466         2.870472        -0.724938
 C         0.795360         1.770564        -0.314574
 C         0.669238         0.710690        -1.419669
 C         1.450243         1.337536        -2.579688
 O         0.872445         2.526730        -2.968350
 C         1.373733         1.287285         0.967277
 O         1.558065         0.151748         1.326194
 H         2.902767         4.352884        -3.063686
 H         3.943649         3.471733        -2.130448
 H         3.691387         2.804170        -3.752243
 H         2.808213         2.671708        -0.248432
 H         1.408349         3.821937        -0.482393
 H        -0.244094         2.190082        -0.256260
 H         0.966506        -0.260799        -0.991481
 H        -0.437125         0.550353        -1.666857
 H         1.781638         0.771655        -3.427623
 H         1.846099         2.050502         1.588155
