19
Iteration:  3654charge 0 multiplicity 1
 C         3.415745         2.977093        -2.631625
 C         2.024475         2.539546        -2.162590
 C         1.701887         2.712891        -0.688749
 C         0.728551         1.575323        -0.306330
 C         0.446019         0.746579        -1.638519
 C         1.228292         1.433598        -2.688984
 O         0.891424         2.845738        -3.084704
 C         1.166838         0.823159         0.858683
 O         2.178302         0.891572         1.474591
 H         3.616642         4.081370        -2.611396
 H         4.147675         2.601071        -1.811846
 H         3.553630         2.604221        -3.729636
 H         2.518163         2.670942        -0.056128
 H         1.234740         3.739011        -0.406712
 H        -0.233183         2.125548         0.122111
 H         0.845290        -0.257078        -1.505781
 H        -0.573643         0.926554        -1.932828
 H         1.462017         0.618508        -3.486427
 H         0.373124         0.011306         1.284616
