19
Iteration:  4930
 C         3.500147         2.827466        -2.261555
 C         2.018410         2.481924        -2.028292
 C         1.202800         3.113722        -0.775913
 C         0.538736         1.834134        -0.196330
 C         0.250659         0.927902        -1.432418
 C         1.241363         1.260715        -2.473165
 O         1.067214         2.503047        -3.150471
 C         1.608736         1.338289         0.808107
 O         2.290284         0.345712         0.731527
 H         3.643643         3.816686        -2.660864
 H         4.113250         2.615558        -1.432909
 H         3.682117         2.063515        -2.994773
 H         1.854469         3.614663        -0.018278
 H         0.493203         3.915860        -0.951284
 H        -0.403749         1.987247         0.410468
 H         0.391781        -0.160248        -1.209136
 H        -0.777807         1.112181        -1.839766
 H         1.820972         0.534497        -2.986790
 H         1.740698         2.096111         1.681010
