19
Iteration:  3034charge 0 multiplicity 1
 C         3.505994         2.709155        -2.800689
 C         2.033859         2.588386        -2.260776
 C         1.803776         2.963756        -0.806044
 C         0.972509         1.765728        -0.176473
 C         0.354114         1.093651        -1.366708
 C         1.172160         1.503450        -2.622766
 O         0.750572         2.834974        -3.141615
 C         1.679807         0.660511         0.551970
 O         1.573710         0.548235         1.759413
 H         3.918835         3.697855        -2.630919
 H         4.035091         1.904729        -2.275400
 H         3.438368         2.396713        -3.779520
 H         2.847189         3.018877        -0.216898
 H         1.423346         3.904069        -0.549525
 H         0.132607         2.105685         0.417595
 H         0.297014        -0.013842        -1.167916
 H        -0.684235         1.329102        -1.490938
 H         1.353097         0.746682        -3.413429
 H         2.358907        -0.025059         0.016951
