19
Iteration:  1789
 C         3.280941         2.704670        -3.312999
 C         2.131846         2.534592        -2.375671
 C         2.348164         2.510237        -0.831744
 C         1.181789         1.680104        -0.304535
 C         0.523042         0.834418        -1.428536
 C         0.912515         1.774337        -2.720539
 O         0.819297         3.210603        -2.640307
 C         1.647567         0.757952         0.878634
 O         1.030232         0.617182         1.868527
 H         3.725458         3.692668        -3.286255
 H         4.119997         1.967192        -3.073208
 H         2.951436         2.588519        -4.363596
 H         3.227679         1.833498        -0.711193
 H         2.417970         3.377616        -0.156561
 H         0.417195         2.389094         0.104304
 H         0.836231        -0.160682        -1.560636
 H        -0.576403         0.737169        -1.271894
 H         0.991101         1.308917        -3.809251
 H         2.544021         0.092870         0.664164
