19
Iteration:  1630charge 0 multiplicity 1
 C         3.396772         2.375819        -2.976606
 C         2.096508         2.553768        -2.251177
 C         2.142461         2.908885        -0.751083
 C         0.900508         1.954401        -0.152292
 C         0.241379         1.160587        -1.326106
 C         0.931777         1.641072        -2.582609
 O         0.941067         3.050582        -2.990897
 C         1.637584         0.777593         0.573199
 O         1.529729         0.262053         1.678962
 H         3.759275         3.315687        -3.535936
 H         4.083413         1.904106        -2.270890
 H         3.257795         1.756621        -3.861313
 H         3.047065         2.629634        -0.246752
 H         1.879141         3.900291        -0.428544
 H         0.171368         2.569560         0.368478
 H         0.241061         0.036089        -1.323850
 H        -0.818955         1.435911        -1.357618
 H         0.819179         1.161659        -3.552745
 H         2.443268         0.433004        -0.172728
