19
Iteration:  1761charge 0 multiplicity 1
 C         3.250376         2.724679        -3.308149
 C         2.201858         2.514808        -2.342398
 C         2.306804         2.655096        -0.813713
 C         1.159432         1.798461        -0.246356
 C         0.381144         1.076598        -1.382965
 C         1.030737         1.651023        -2.650243
 O         0.856363         3.006065        -2.685443
 C         1.650199         0.753480         0.740782
 O         1.079991         0.467713         1.821360
 H         4.023078         3.518918        -3.045548
 H         3.791720         1.774905        -3.245157
 H         2.869675         2.626167        -4.325921
 H         3.292565         2.467992        -0.311401
 H         2.076342         3.640069        -0.396105
 H         0.537737         2.522728         0.258783
 H         0.614729        -0.075435        -1.370596
 H        -0.715997         1.284549        -1.455679
 H         0.877920         1.162642        -3.593282
 H         2.448680         0.021284         0.385515
