19
Iteration:  2135
 C         3.473165         2.599404        -2.948111
 C         2.121978         2.502100        -2.284900
 C         2.031495         2.841883        -0.779251
 C         0.968396         1.825184        -0.208847
 C         0.124330         1.164216        -1.323259
 C         0.969977         1.553165        -2.642735
 O         0.894335         2.958692        -2.957790
 C         1.753488         0.664542         0.568159
 O         1.476138         0.470205         1.709022
 H         3.867429         3.592647        -2.723347
 H         4.118476         1.740734        -2.607035
 H         3.605362         2.607419        -4.062094
 H         2.894181         2.781566        -0.197322
 H         1.668874         3.899697        -0.564733
 H         0.352262         2.306645         0.647081
 H        -0.137509         0.108429        -1.286745
 H        -0.864041         1.651157        -1.339924
 H         1.089311         0.948552        -3.541786
 H         2.738694         0.301209         0.105805
