19
Iteration:  4037charge 0 multiplicity 1
 C         3.274626         3.362775        -2.877723
 C         2.087585         2.638505        -2.207907
 C         1.761939         2.841757        -0.732274
 C         0.813070         1.754209        -0.357868
 C         0.687605         0.742164        -1.368576
 C         1.410797         1.285195        -2.562426
 O         0.858830         2.603483        -3.044928
 C         1.415017         1.271925         1.011226
 O         1.544423         0.121479         1.347331
 H         2.827361         4.322530        -3.337234
 H         4.148835         3.404853        -2.028164
 H         3.651697         2.734014        -3.808544
 H         2.744912         2.754446        -0.337388
 H         1.226017         3.805549        -0.559149
 H        -0.170103         2.104027        -0.113858
 H         1.164181        -0.259238        -1.031820
 H        -0.328312         0.524822        -1.772069
 H         1.736843         0.656607        -3.405636
 H         1.718220         2.174442         1.711365
