19
Iteration:  1261charge 0 multiplicity 1
 C         3.191755         2.897743        -3.349158
 C         2.164952         2.470576        -2.336106
 C         2.655974         1.867640        -1.024154
 C         1.157746         1.392251        -0.405391
 C         0.424320         0.943724        -1.639222
 C         0.901650         1.808643        -2.738939
 O         0.946801         3.247085        -2.269671
 C         1.252948         0.574801         0.886349
 O         1.183492         1.239361         1.953882
 H         3.438109         3.904951        -2.998406
 H         4.210396         2.354440        -3.502352
 H         2.943068         3.080168        -4.377052
 H         3.351570         1.113088        -1.234314
 H         3.081551         2.633104        -0.305213
 H         0.800743         2.356386         0.002197
 H         0.608761        -0.116386        -2.002132
 H        -0.651466         0.962275        -1.535777
 H         0.358683         1.680820        -3.688702
 H         1.351620        -0.576522         1.031365
