19
Iteration:  2540
 C         2.985587         3.086919        -3.490757
 C         2.152809         2.588603        -2.323373
 C         2.693548         2.279812        -0.987138
 C         1.342369         1.698110        -0.341078
 C         0.785155         0.726183        -1.384021
 C         1.119210         1.590886        -2.622267
 O         0.789255         2.996378        -2.390407
 C         1.467748         0.865685         0.884078
 O         0.644021         0.771645         1.806959
 H         3.245885         4.132822        -3.246165
 H         3.874803         2.437954        -3.580733
 H         2.389499         3.053751        -4.387781
 H         3.528540         1.624605        -1.102825
 H         3.118964         2.988939        -0.338561
 H         0.618916         2.473421        -0.296425
 H         1.326897        -0.240344        -1.399507
 H        -0.225559         0.396353        -1.313530
 H         0.889251         1.346638        -3.636485
 H         2.291759         0.086023         0.864230
