19
Iteration:   504
 C         3.007463         2.436372        -3.652458
 C         2.220800         2.483288        -2.372670
 C         2.698442         2.097704        -1.028622
 C         1.476397         1.750738        -0.205288
 C         0.387178         1.308171        -1.170018
 C         0.856795         1.928436        -2.526233
 O         1.060910         3.347992        -2.506661
 C         1.567951         0.763976         0.920642
 O         0.670750         0.505540         1.720224
 H         3.580869         3.291958        -3.965818
 H         3.768541         1.593622        -3.578170
 H         2.331402         2.307335        -4.474269
 H         3.441429         1.328058        -1.015081
 H         3.409848         2.837737        -0.611379
 H         1.057594         2.629279         0.323924
 H         0.157957         0.286402        -1.213217
 H        -0.488495         1.811118        -0.796154
 H         0.578001         1.555124        -3.458087
 H         2.434447         0.106719         0.832952
