19
Iteration:  3994
 C         3.361241         3.149689        -2.920809
 C         1.990295         2.709069        -2.295612
 C         1.635060         3.071952        -0.808349
 C         0.928638         1.814597        -0.244615
 C         0.876414         0.780077        -1.418161
 C         1.448699         1.441749        -2.596292
 O         0.769319         2.615961        -3.084031
 C         1.362790         1.172688         1.100414
 O         1.524037        -0.026618         1.433402
 H         3.263770         4.190326        -3.336166
 H         4.269310         2.875611        -2.201317
 H         3.306892         2.419977        -3.748112
 H         2.499333         3.190924        -0.119664
 H         0.886549         3.938051        -0.947934
 H        -0.086586         2.101118        -0.007593
 H         1.518648        -0.089427        -1.146555
 H        -0.073719         0.290435        -1.437436
 H         1.758577         0.774377        -3.431231
 H         1.304139         1.784306         1.995084
