19
Iteration:  4718
 C         3.303775         3.146498        -2.710287
 C         1.993446         2.568785        -2.156166
 C         1.503743         3.061621        -0.698817
 C         0.695008         1.847667        -0.152715
 C         0.498905         0.871415        -1.400410
 C         1.407215         1.297894        -2.544011
 O         0.992303         2.487102        -3.263828
 C         1.550824         1.250335         1.043645
 O         1.822251         0.063854         1.130368
 H         3.322810         4.249360        -2.609827
 H         4.119244         2.882752        -2.019624
 H         3.637950         2.834831        -3.699942
 H         2.377854         3.431096        -0.021650
 H         0.938996         4.098333        -0.810845
 H        -0.273483         2.365077         0.082393
 H         0.779148        -0.258161        -1.116106
 H        -0.549155         0.868774        -1.812155
 H         1.957495         0.722957        -3.256627
 H         1.810933         2.029258         1.819049
