19
Iteration:   779
 C         3.359766         2.233406        -3.175470
 C         2.145969         2.389377        -2.255786
 C         2.283661         2.566974        -0.642271
 C         0.919564         1.787719        -0.159509
 C         0.054441         1.477356        -1.389916
 C         0.877038         1.854836        -2.660797
 O         1.054330         3.211767        -2.891807
 C         1.424178         0.568975         0.582938
 O         1.688391         0.548576         1.769410
 H         4.189098         2.913016        -3.036143
 H         3.610255         1.108689        -3.059733
 H         3.171102         2.538533        -4.138371
 H         3.271912         2.122126        -0.397758
 H         2.134196         3.613906        -0.253660
 H         0.405385         2.477821         0.527662
 H        -0.061729         0.309945        -1.407043
 H        -0.922592         2.023174        -1.281414
 H         0.676482         1.168931        -3.547849
 H         1.456904        -0.359847        -0.006167
