19
Iteration:  4104
 C         3.228181         3.252458        -3.042066
 C         2.129037         2.663034        -2.251500
 C         1.872139         2.879619        -0.751869
 C         0.788401         1.827096        -0.263805
 C         0.847676         0.686567        -1.351936
 C         1.447812         1.350624        -2.571899
 O         0.811497         2.637601        -3.033920
 C         1.057105         1.203940         1.184383
 O         1.633442         0.104722         1.306670
 H         3.320603         4.404425        -2.857823
 H         4.374671         2.871526        -2.995299
 H         3.069907         3.380274        -4.056822
 H         2.715152         2.643676        -0.198530
 H         1.645104         3.935764        -0.437278
 H        -0.113156         2.371815        -0.354408
 H         1.709369         0.088590        -0.916384
 H        -0.051443         0.117580        -1.483412
 H         1.749172         0.821361        -3.497803
 H         0.595266         1.706994         2.027607
