19
Iteration:   629charge 0 multiplicity 1
 C         3.173897         2.775184        -3.553521
 C         2.148635         2.265652        -2.499712
 C         2.686350         1.877739        -1.037666
 C         1.296427         1.591651        -0.251961
 C         0.444598         1.080810        -1.409896
 C         0.735494         1.955836        -2.576941
 O         1.091172         3.276611        -2.279066
 C         1.361584         0.668398         0.818291
 O         0.948863         1.016405         1.916693
 H         3.824403         3.495324        -3.077531
 H         3.771334         1.988055        -3.928769
 H         2.693517         3.101502        -4.459875
 H         3.305159         0.988666        -1.115591
 H         3.252629         2.730272        -0.731637
 H         0.922252         2.505720         0.197863
 H         0.543994         0.082773        -1.646279
 H        -0.632072         1.205220        -1.238133
 H         0.245329         1.663746        -3.582079
 H         1.835715        -0.395499         0.576519
