19
Iteration:  2388charge 0 multiplicity 1
 C         3.309572         2.763472        -3.109311
 C         2.108850         2.500935        -2.332802
 C         2.118574         2.771719        -0.785479
 C         1.110689         1.786927        -0.127040
 C         0.329645         1.169501        -1.398126
 C         0.997937         1.542561        -2.697998
 O         0.905804         3.007481        -2.979314
 C         1.697069         0.689508         0.722454
 O         1.272370         0.389511         1.886392
 H         3.523672         3.752490        -3.376273
 H         4.160318         2.310178        -2.607075
 H         3.250855         2.202591        -3.991422
 H         3.152798         2.430663        -0.548701
 H         1.926748         3.916479        -0.631484
 H         0.407588         2.317766         0.533343
 H         0.314763         0.067526        -1.311041
 H        -0.617168         1.715648        -1.503811
 H         1.040369         0.811353        -3.540236
 H         2.490698         0.036487         0.235910
