19
Iteration:  4598
 C         3.207947         3.258779        -3.017657
 C         1.991165         2.704400        -2.246402
 C         1.956234         2.816021        -0.744027
 C         1.015599         1.660348        -0.393252
 C         1.071038         0.573576        -1.497125
 C         1.406454         1.425532        -2.707065
 O         0.691060         2.749212        -2.883536
 C         1.088127         1.211133         1.049298
 O         1.417264         0.176234         1.568069
 H         3.238084         4.397126        -3.066705
 H         4.166633         3.118770        -2.468822
 H         3.261994         2.980673        -4.055104
 H         3.025905         2.791297        -0.481758
 H         1.641237         3.611877        -0.150440
 H        -0.047615         2.014965        -0.348032
 H         1.890021        -0.025135        -1.244465
 H         0.192528        -0.013205        -1.542500
 H         1.659058         0.949895        -3.642081
 H         0.966213         2.153627         1.741258
