19
Iteration:  1439charge 0 multiplicity 1
 C         3.434806         2.487551        -3.027602
 C         2.059914         2.494987        -2.288801
 C         2.162941         2.461320        -0.748167
 C         0.992209         1.629638        -0.275967
 C         0.182159         1.176615        -1.543173
 C         0.898699         1.764305        -2.688978
 O         0.911404         3.207449        -2.782473
 C         1.433451         0.566114         0.649568
 O         1.681975         0.785204         1.859994
 H         3.794974         3.500153        -3.373249
 H         4.285375         2.110406        -2.402054
 H         3.403509         1.964596        -4.063273
 H         3.095140         1.932567        -0.564308
 H         2.302639         3.432334        -0.387663
 H         0.263790         2.286045         0.256448
 H         0.232081         0.047139        -1.717603
 H        -0.878096         1.520923        -1.376596
 H         0.931857         1.480508        -3.707672
 H         1.683922        -0.493568         0.211173
