19
Iteration:  3065
 C         3.385865         2.747928        -2.839135
 C         2.072207         2.482104        -2.231647
 C         1.879086         2.878890        -0.794448
 C         0.918123         1.718766        -0.235398
 C         0.266480         0.959785        -1.443687
 C         1.101458         1.472121        -2.686995
 O         0.890866         2.949230        -3.028374
 C         1.782766         0.833735         0.641511
 O         1.493684         0.531496         1.797796
 H         3.760965         3.760020        -2.880284
 H         4.168233         2.058547        -2.471092
 H         3.199214         2.397264        -3.915331
 H         2.926607         2.760875        -0.347906
 H         1.482005         3.890622        -0.679725
 H         0.155910         2.101801         0.352134
 H         0.477418        -0.119329        -1.251977
 H        -0.688737         1.411205        -1.542253
 H         1.245052         0.917810        -3.693654
 H         2.821951         0.617723         0.223989
