19
Iteration:  3303
 C         2.897645         3.326805        -3.534706
 C         2.183600         2.546600        -2.364014
 C         2.701825         2.377962        -0.849851
 C         1.438664         1.700669        -0.297894
 C         0.875766         0.663596        -1.476206
 C         1.190831         1.490138        -2.625808
 O         0.719501         2.823654        -2.490274
 C         1.507271         0.922948         1.004972
 O         0.550123         0.701045         1.761474
 H         3.243863         4.271354        -3.251510
 H         3.663041         2.626686        -3.709462
 H         2.167657         3.397975        -4.425603
 H         3.558096         1.573439        -0.815636
 H         2.947133         3.417118        -0.289709
 H         0.644993         2.605194        -0.226151
 H         1.283774        -0.307498        -1.352912
 H        -0.207300         0.804884        -1.294180
 H         1.015906         1.038102        -3.631660
 H         2.370302         0.441223         1.423833
