19
Iteration:  2136
 C         3.468360         2.601812        -2.955084
 C         2.127861         2.490441        -2.283133
 C         2.020160         2.851599        -0.771452
 C         0.974842         1.823394        -0.204244
 C         0.122351         1.171444        -1.325378
 C         0.968141         1.546976        -2.643353
 O         0.898728         2.957178        -2.956048
 C         1.762371         0.665374         0.562517
 O         1.473128         0.470047         1.714312
 H         3.863887         3.609151        -2.730073
 H         4.135986         1.724583        -2.598340
 H         3.624690         2.635825        -4.039981
 H         2.890241         2.778027        -0.211610
 H         1.693058         3.917413        -0.554867
 H         0.333942         2.295205         0.641308
 H        -0.186654         0.113728        -1.314649
 H        -0.848069         1.638910        -1.355697
 H         1.047731         0.946098        -3.600079
 H         2.741294         0.299144         0.096356
