19
Iteration:  1521charge 0 multiplicity 1
 C         3.448695         2.558235        -2.922385
 C         2.121674         2.486768        -2.205065
 C         2.117552         2.761905        -0.797842
 C         0.878594         1.811221        -0.242701
 C         0.154021         1.278061        -1.374067
 C         1.003305         1.597064        -2.578045
 O         0.916023         3.002147        -2.916530
 C         1.441840         0.590035         0.566873
 O         1.741692         0.547890         1.676507
 H         4.239048         3.432755        -2.690351
 H         3.713515         1.495857        -2.914641
 H         3.273040         2.576668        -3.994966
 H         2.986245         2.369553        -0.245912
 H         2.076970         3.896243        -0.626405
 H         0.149746         2.393065         0.381244
 H        -0.044226         0.219812        -1.422075
 H        -0.823848         1.728300        -1.365102
 H         1.057394         1.030689        -3.548151
 H         1.448182        -0.326952        -0.065566
