19
Iteration:  4956charge 0 multiplicity 1
 C         3.362065         2.820206        -2.243412
 C         1.956621         2.573067        -2.134422
 C         1.219379         3.118388        -0.830054
 C         0.608747         1.806898        -0.166142
 C         0.279802         0.923976        -1.340572
 C         1.284606         1.302566        -2.406620
 O         1.129124         2.531261        -3.298350
 C         1.612469         1.299548         0.834733
 O         2.270579         0.260010         0.811074
 H         3.610175         3.901530        -2.275770
 H         3.760930         2.169268        -1.371831
 H         3.524094         2.155651        -3.104775
 H         1.866902         3.781825        -0.166685
 H         0.438719         3.861412        -0.913696
 H        -0.336995         2.062891         0.356915
 H         0.256745        -0.126451        -1.261506
 H        -0.677288         1.253536        -1.718978
 H         2.045177         0.608106        -2.907589
 H         1.842982         2.119948         1.575455
