19
Iteration:  2532charge 0 multiplicity 1
 C         3.027443         3.070810        -3.432429
 C         2.142744         2.617553        -2.353644
 C         2.641547         2.265387        -1.015224
 C         1.345862         1.703676        -0.291160
 C         0.731446         0.730417        -1.378751
 C         1.072357         1.563787        -2.606804
 O         0.790528         2.990310        -2.397751
 C         1.474021         0.834276         0.877546
 O         0.687380         0.784421         1.747770
 H         3.412430         3.993895        -3.287162
 H         3.771275         2.350449        -3.563144
 H         2.571360         3.201355        -4.429106
 H         3.605224         1.680492        -1.013986
 H         2.807007         3.256476        -0.333822
 H         0.759201         2.535460         0.011668
 H         1.454180        -0.126554        -1.380993
 H        -0.258681         0.384402        -1.330593
 H         1.110904         1.267124        -3.643347
 H         2.440330         0.249887         0.825104
