19
Iteration:  4168charge 0 multiplicity 1
 C         3.234724         3.277495        -2.926310
 C         2.053260         2.644305        -2.277963
 C         1.998820         2.620829        -0.755100
 C         0.811373         1.630054        -0.423678
 C         0.972965         0.553332        -1.531775
 C         1.399071         1.412538        -2.799061
 O         0.729147         2.758743        -2.766663
 C         1.032237         1.320233         1.044654
 O         1.601434         0.352085         1.523408
 H         3.169718         4.351956        -2.722802
 H         4.133639         2.806013        -2.576624
 H         3.082197         3.087320        -3.940533
 H         2.986883         2.262556        -0.217650
 H         1.943208         3.594395        -0.309490
 H        -0.168689         2.156975        -0.415181
 H         2.087590         0.239715        -1.278504
 H         0.134912        -0.169876        -1.643523
 H         1.280713         0.901170        -3.775041
 H         0.605646         2.083035         1.820994
