19
Iteration:  1934
 C         3.115362         2.977040        -3.256777
 C         2.115760         2.516879        -2.361751
 C         2.561405         2.077670        -0.938303
 C         1.248275         1.480204        -0.401000
 C         0.668259         0.750862        -1.643364
 C         0.938577         1.785147        -2.747075
 O         0.785007         3.168219        -2.376497
 C         1.508220         0.736351         0.861585
 O         0.967757         1.054663         1.944674
 H         3.703309         3.884189        -2.893939
 H         3.824918         2.158225        -3.238139
 H         2.800436         3.256168        -4.278095
 H         3.332630         1.342650        -0.941676
 H         2.777210         2.928951        -0.346799
 H         0.500011         2.195607        -0.156426
 H         1.176578        -0.157063        -1.921376
 H        -0.423999         0.362249        -1.457755
 H         0.788355         1.374107        -3.840767
 H         2.162189        -0.163490         0.877274
