19
Iteration:  1494
 C         3.468903         2.545892        -2.949106
 C         2.110015         2.362255        -2.201566
 C         2.080442         2.594536        -0.733670
 C         0.803031         1.747169        -0.215368
 C         0.062213         1.272401        -1.521547
 C         0.924386         1.632988        -2.683397
 O         1.002693         3.130606        -2.806832
 C         1.526263         0.604070         0.510052
 O         1.793187         0.698353         1.770927
 H         3.885766         3.557533        -2.992854
 H         4.064412         1.671673        -2.649919
 H         3.335453         2.260438        -4.037468
 H         2.957305         2.339010        -0.145074
 H         1.983154         3.644295        -0.710039
 H         0.154048         2.227531         0.560640
 H         0.165713         0.126193        -1.543804
 H        -1.046775         1.446031        -1.663775
 H         0.784157         1.275060        -3.673838
 H         1.868835        -0.298648         0.000324
