19
Iteration:   228charge 0 multiplicity 1
 C         3.371588         2.132288        -3.237868
 C         2.141468         2.280996        -2.246860
 C         2.243563         2.133154        -0.762610
 C         0.922112         1.977650        -0.167746
 C         0.069422         1.529811        -1.336729
 C         0.793107         1.979260        -2.591489
 O         1.216300         3.380560        -2.623465
 C         1.000143         0.958641         0.920587
 O         1.998047         0.291708         1.260708
 H         4.252134         2.739890        -3.012719
 H         3.718518         1.157850        -3.459178
 H         2.965877         2.665664        -4.091353
 H         2.845421         1.182488        -0.612745
 H         2.743569         3.039008        -0.356477
 H         0.572933         2.877862         0.355342
 H         0.090018         0.349966        -1.384880
 H        -1.027415         1.719356        -1.281820
 H         0.551612         1.501841        -3.486908
 H        -0.033280         0.732032         1.231740
