19
Iteration:  3817charge 0 multiplicity 1
 C         3.228586         3.244924        -2.987153
 C         2.082993         2.653913        -2.208543
 C         2.091327         2.616199        -0.726294
 C         0.843472         1.607595        -0.371999
 C         0.961021         0.592293        -1.475637
 C         1.358163         1.411858        -2.739747
 O         0.693744         2.785257        -2.818288
 C         0.829814         1.171562         1.030326
 O         1.749174         0.474932         1.451670
 H         3.042602         4.294468        -3.223072
 H         4.160839         3.232976        -2.440787
 H         3.242357         2.693572        -3.899074
 H         3.067136         2.360267        -0.192070
 H         1.963717         3.620262        -0.258519
 H        -0.027477         2.203031        -0.466037
 H         1.740198        -0.150872        -1.338286
 H        -0.017952         0.086128        -1.576424
 H         1.524084         0.950167        -3.710252
 H         0.053043         1.564228         1.738071
