19
Iteration:  4754charge 0 multiplicity 1
 C         3.445601         2.893543        -2.533892
 C         2.019994         2.640992        -2.167023
 C         1.333776         3.150382        -0.852333
 C         0.709128         1.838690        -0.251973
 C         0.482555         0.707500        -1.390829
 C         1.401285         1.339813        -2.507372
 O         0.907631         2.639743        -3.090529
 C         1.567680         1.296712         0.930697
 O         1.932022         0.152444         1.038513
 H         3.470750         4.003016        -2.698797
 H         3.974525         2.690348        -1.594407
 H         3.981868         2.407634        -3.525681
 H         2.103209         3.602883        -0.045511
 H         0.512104         3.762400        -1.238135
 H        -0.251274         2.239020         0.277781
 H         0.851664        -0.307079        -1.135421
 H        -0.560500         0.644045        -1.589880
 H         1.710053         0.512012        -3.149720
 H         1.846360         1.945029         1.796305
