19
Iteration:  3390charge 0 multiplicity 1
 C         3.212598         3.057124        -3.246998
 C         2.078329         2.627406        -2.319951
 C         2.224836         2.573053        -0.768414
 C         1.050556         1.626528        -0.316513
 C         0.688105         0.700861        -1.539263
 C         1.183939         1.502017        -2.726657
 O         0.775527         2.913132        -2.744523
 C         1.598328         0.802529         0.851832
 O         1.058307         0.762240         1.940440
 H         3.338879         4.108285        -3.290636
 H         4.114375         2.581632        -3.142905
 H         3.023393         2.703654        -4.273351
 H         3.235405         2.362961        -0.477849
 H         2.111539         3.528006        -0.231266
 H         0.142403         2.138236         0.196308
 H         1.258350        -0.231509        -1.410137
 H        -0.368325         0.490014        -1.517031
 H         1.375662         1.144244        -3.709340
 H         2.543091         0.309951         0.554184
