19
Iteration:  4459
 C         3.135017         3.208349        -3.103743
 C         1.953507         2.769124        -2.230768
 C         1.923325         2.916105        -0.752826
 C         1.156446         1.688036        -0.314646
 C         1.178088         0.692231        -1.449362
 C         1.472313         1.465679        -2.662533
 O         0.703896         2.637605        -2.826181
 C         1.371501         1.194341         1.086551
 O         1.031640         0.093811         1.433334
 H         2.961360         4.188464        -3.208873
 H         3.985270         3.150163        -2.597246
 H         2.973425         2.717960        -4.107021
 H         2.937188         3.058177        -0.283209
 H         1.544161         3.999602        -0.557809
 H         0.108952         2.046798        -0.389543
 H         2.019064        -0.143901        -1.336353
 H         0.269088         0.039479        -1.460320
 H         1.810098         0.738095        -3.352004
 H         1.897316         1.879890         1.725978
