19
Iteration:  4064charge 0 multiplicity 1
 C         3.210607         3.393295        -2.838709
 C         2.062721         2.537872        -2.198357
 C         1.926998         2.869198        -0.740586
 C         0.787327         1.885541        -0.331496
 C         0.686140         0.708922        -1.484081
 C         1.537187         1.244799        -2.566344
 O         0.784113         2.520001        -2.925166
 C         1.327640         1.322533         1.033178
 O         1.561599         0.146519         1.243054
 H         2.818146         4.398515        -2.871924
 H         4.095091         3.251962        -2.277232
 H         3.236580         2.938173        -3.781576
 H         2.994864         2.567086        -0.375704
 H         1.608095         3.951721        -0.714741
 H        -0.220019         2.354721        -0.040400
 H         0.979941        -0.213260        -1.070033
 H        -0.250178         0.454747        -1.967776
 H         1.944563         0.616595        -3.366338
 H         1.377543         2.047411         1.905003
