19
Iteration:  1658charge 0 multiplicity 1
 C         3.378594         2.434190        -3.148814
 C         2.142627         2.471343        -2.256128
 C         2.059221         2.899998        -0.766062
 C         0.975557         1.891839        -0.125033
 C         0.211264         1.234368        -1.315641
 C         0.974663         1.661739        -2.556594
 O         0.960903         3.059405        -2.959015
 C         1.779369         0.692352         0.634005
 O         1.372394         0.298772         1.704126
 H         3.581031         3.487690        -3.472432
 H         4.164235         1.995426        -2.504287
 H         3.362780         1.832814        -4.053882
 H         3.008853         2.994850        -0.114268
 H         1.563453         3.913496        -0.701487
 H         0.290379         2.410859         0.590183
 H         0.250501         0.139464        -1.341194
 H        -0.899645         1.551350        -1.380153
 H         1.071605         0.964872        -3.487428
 H         2.594954         0.157133        -0.017019
