19
Iteration:  4091charge 0 multiplicity 1
 C         3.260793         3.400792        -3.025622
 C         2.062634         2.611082        -2.241098
 C         1.932028         2.885447        -0.699395
 C         0.796295         1.817890        -0.250152
 C         0.809847         0.682897        -1.313718
 C         1.395877         1.329536        -2.548044
 O         0.879836         2.569986        -3.021912
 C         1.096555         1.241025         1.070273
 O         1.603100         0.140675         1.236508
 H         3.241381         4.463495        -2.747278
 H         4.201149         2.900664        -2.723665
 H         2.979209         3.076786        -4.028890
 H         2.892808         2.659286        -0.356406
 H         1.581345         3.875584        -0.552163
 H        -0.176147         2.252479        -0.067901
 H         1.416382        -0.281722        -1.054862
 H        -0.201091         0.199165        -1.500453
 H         1.791442         0.585509        -3.247149
 H         0.879543         1.858183         1.943929
