19
Iteration:  1781charge 0 multiplicity 1
 C         3.298904         2.655297        -3.318381
 C         2.076723         2.563934        -2.352880
 C         2.303678         2.572137        -0.866599
 C         1.156860         1.670320        -0.237556
 C         0.515413         0.926369        -1.456110
 C         0.978442         1.661262        -2.689750
 O         0.835837         3.203893        -2.599517
 C         1.667207         0.707099         0.795187
 O         1.025011         0.606114         1.845187
 H         3.710533         3.672647        -3.096691
 H         4.071111         1.929787        -3.299703
 H         2.915831         2.509209        -4.277713
 H         3.332696         2.149389        -0.517525
 H         2.450184         3.573512        -0.467300
 H         0.431139         2.311710         0.174319
 H         0.770009        -0.136328        -1.473441
 H        -0.588427         1.116748        -1.303421
 H         1.067398         1.212884        -3.721898
 H         2.655767         0.244853         0.608062
