19
Iteration:  2840
 C         3.434844         2.813255        -2.735980
 C         2.083401         2.397865        -2.271045
 C         1.891941         2.817230        -0.761605
 C         0.752445         1.827396        -0.213331
 C         0.216442         1.086796        -1.499825
 C         1.044084         1.471357        -2.714010
 O         0.979289         2.800526        -2.968578
 C         1.619566         0.783777         0.554840
 O         1.768885         0.629238         1.743293
 H         3.674327         3.876512        -2.463958
 H         4.122408         2.005278        -2.358056
 H         3.454595         2.828012        -3.809918
 H         2.807899         2.746023        -0.213899
 H         1.621300         3.970178        -0.725361
 H        -0.153865         2.201953         0.448115
 H         0.319942        -0.007601        -1.363980
 H        -0.933704         1.035250        -1.538918
 H         1.099436         0.667924        -3.510064
 H         2.093016         0.038558        -0.144515
