19
Iteration:   791charge 0 multiplicity 1
 C         3.443590         2.209683        -3.183099
 C         2.169870         2.407299        -2.311890
 C         2.207640         2.569489        -0.704153
 C         0.973999         1.775065        -0.147782
 C        -0.010257         1.523198        -1.396640
 C         0.778048         1.795144        -2.625153
 O         1.091893         3.263505        -2.861966
 C         1.418781         0.527896         0.614055
 O         1.716634         0.537161         1.778243
 H         4.147853         2.917218        -2.810814
 H         4.057844         1.231880        -3.188955
 H         3.109926         2.259790        -4.100086
 H         3.083529         2.500597        -0.021920
 H         1.970473         3.646590        -0.665258
 H         0.505316         2.358951         0.632046
 H        -0.341691         0.390534        -1.486355
 H        -1.032057         1.998160        -1.335572
 H         0.757842         1.153504        -3.563532
 H         1.615795        -0.336513        -0.032245
