19
Iteration:  4117
 C         3.228698         3.211615        -3.067099
 C         2.053760         2.647705        -2.277293
 C         1.867806         2.843125        -0.759190
 C         0.800839         1.819716        -0.300285
 C         0.985030         0.750357        -1.375598
 C         1.459240         1.435628        -2.673913
 O         0.798778         2.667025        -2.942566
 C         0.999763         1.130010         1.162212
 O         1.635824         0.152258         1.391627
 H         3.504437         4.246947        -2.633376
 H         4.124648         2.446593        -2.798203
 H         2.933209         3.101197        -4.101682
 H         2.879493         2.759523        -0.282684
 H         1.530229         3.934738        -0.557582
 H        -0.249688         2.183499        -0.246906
 H         1.699925        -0.000177        -1.074708
 H         0.045429         0.275366        -1.535577
 H         1.839302         0.780057        -3.473364
 H         0.576422         1.692697         2.024614
