19
Iteration:  2664charge 0 multiplicity 1
 C         3.219512         3.016524        -3.393287
 C         2.182707         2.513204        -2.372460
 C         2.322640         2.501414        -0.895121
 C         1.134217         1.625570        -0.182522
 C         0.652417         0.822599        -1.560094
 C         1.042879         1.627894        -2.768126
 O         0.835787         2.986017        -2.713140
 C         1.502608         0.713228         0.941058
 O         1.027797         0.746188         2.070492
 H         3.647857         3.776388        -2.807905
 H         4.043261         2.346114        -3.584176
 H         2.658264         3.391672        -4.258820
 H         3.158674         1.889788        -0.688134
 H         2.251099         3.641059        -0.483557
 H         0.292565         2.258193         0.301108
 H         1.140755        -0.129123        -1.705426
 H        -0.471761         0.779467        -1.591387
 H         1.104824         1.230638        -3.862821
 H         2.235243        -0.127608         0.777832
