19
Iteration:  3368
 C         3.182890         3.076981        -3.208729
 C         2.105617         2.554725        -2.400817
 C         2.298859         2.498766        -0.915154
 C         1.197597         1.654350        -0.364236
 C         0.830024         0.695682        -1.538212
 C         1.123721         1.557745        -2.716140
 O         0.665079         2.908758        -2.586674
 C         1.595587         0.889304         0.924406
 O         0.906151         0.739307         1.902406
 H         3.305954         4.125316        -3.198058
 H         4.050345         2.597260        -2.904433
 H         3.203541         2.693893        -4.257596
 H         3.233898         2.032804        -0.551801
 H         2.411264         3.473004        -0.422725
 H         0.201854         2.221384        -0.101700
 H         1.423407        -0.215702        -1.634404
 H        -0.231312         0.487779        -1.491111
 H         1.082466         1.114006        -3.709630
 H         2.715529         0.585962         0.889766
