19
Iteration:  4051
 C         3.199816         3.341291        -2.853696
 C         2.089930         2.620693        -2.223109
 C         1.860914         2.872568        -0.771364
 C         0.762234         1.803011        -0.281376
 C         0.655822         0.669081        -1.465223
 C         1.483154         1.286420        -2.597115
 O         0.835804         2.511916        -2.934480
 C         1.346484         1.308869         0.962176
 O         1.563853         0.141886         1.305611
 H         2.961994         4.430679        -3.045818
 H         4.078163         3.503572        -2.100196
 H         3.646925         3.013328        -3.711655
 H         2.751634         2.731564        -0.068542
 H         1.712721         4.002409        -0.477386
 H        -0.151367         2.405787        -0.065821
 H         1.028905        -0.269310        -1.138247
 H        -0.356157         0.637967        -1.701701
 H         1.919483         0.664589        -3.424216
 H         1.807461         2.166626         1.558779
