19
Iteration:  1780
 C         3.297125         2.655092        -3.318212
 C         2.075093         2.566123        -2.347557
 C         2.302216         2.574657        -0.867374
 C         1.157614         1.670282        -0.232431
 C         0.513601         0.937379        -1.460927
 C         0.987492         1.650888        -2.679878
 O         0.837468         3.199781        -2.597896
 C         1.669830         0.706086         0.780364
 O         1.022974         0.602857         1.847701
 H         3.711199         3.653669        -3.102222
 H         4.075464         1.903063        -3.292299
 H         2.910670         2.525263        -4.284097
 H         3.337359         2.177064        -0.520290
 H         2.430077         3.600406        -0.518920
 H         0.415040         2.303024         0.202137
 H         0.752347        -0.089076        -1.468000
 H        -0.589187         1.133077        -1.314410
 H         1.048196         1.190323        -3.747907
 H         2.663073         0.255822         0.604187
