19
Iteration:  1897
 C         3.133177         3.225404        -3.354156
 C         2.171706         2.499871        -2.480427
 C         2.612268         1.926003        -1.038045
 C         1.300982         1.464724        -0.409225
 C         0.628027         0.718169        -1.505812
 C         1.008217         1.711620        -2.722369
 O         0.784890         3.123082        -2.345934
 C         1.385452         0.728627         0.918873
 O         0.916555         1.089030         2.016537
 H         3.465304         3.969148        -2.681100
 H         3.977138         2.504711        -3.644846
 H         2.687220         3.474419        -4.292799
 H         3.267241         1.137698        -0.844623
 H         3.121327         2.738541        -0.483242
 H         0.595855         2.346875        -0.239322
 H         1.185744        -0.189307        -1.919192
 H        -0.418764         0.670500        -1.444965
 H         0.758466         1.600640        -3.775230
 H         1.816100        -0.308007         0.746706
