19
Iteration:  4953
 C         3.342587         2.791979        -2.266592
 C         1.949709         2.581122        -2.103108
 C         1.231779         3.098155        -0.842424
 C         0.600205         1.800920        -0.141959
 C         0.255066         0.906386        -1.377380
 C         1.320295         1.312194        -2.400435
 O         1.134966         2.543962        -3.296287
 C         1.617417         1.314311         0.826951
 O         2.271452         0.276464         0.804478
 H         3.587945         3.835623        -2.269634
 H         3.730538         2.283155        -1.363364
 H         3.634378         2.191491        -3.059278
 H         1.860404         3.732693        -0.131291
 H         0.465045         3.751084        -0.894935
 H        -0.368484         2.102498         0.335134
 H         0.240982        -0.125615        -1.122783
 H        -0.746199         1.273947        -1.689949
 H         2.002801         0.639469        -2.949936
 H         1.896480         2.112247         1.649500
