19
Iteration:  3979charge 0 multiplicity 1
 C         3.300635         3.122612        -2.963632
 C         2.013295         2.750350        -2.256726
 C         1.665146         3.061192        -0.837259
 C         0.892473         1.730479        -0.243120
 C         0.902858         0.694019        -1.322893
 C         1.455532         1.429535        -2.582282
 O         0.759017         2.621199        -3.025161
 C         1.329945         1.213361         1.103111
 O         1.501677         0.038252         1.311716
 H         3.595846         4.192362        -2.934822
 H         4.132917         2.826165        -2.315729
 H         3.621472         2.674615        -4.051459
 H         2.524999         3.383035        -0.310188
 H         1.037398         3.863639        -0.674980
 H        -0.104512         2.100696         0.064482
 H         1.572179        -0.197698        -1.023827
 H        -0.151876         0.294615        -1.625514
 H         1.982843         0.807957        -3.296394
 H         1.469498         2.065132         1.823916
