19
Iteration:   240
 C         3.295355         2.110408        -3.264560
 C         2.237075         2.269526        -2.252388
 C         2.356937         2.240680        -0.736995
 C         0.937427         1.979217        -0.117836
 C         0.041744         1.562451        -1.405233
 C         0.806239         2.030580        -2.652981
 O         1.150706         3.386628        -2.670624
 C         0.951312         0.754950         0.950520
 O         2.000703         0.316441         1.346099
 H         4.161770         2.627610        -2.949975
 H         3.522110         1.077306        -3.379009
 H         2.968016         2.403607        -4.281565
 H         2.968390         1.435754        -0.290228
 H         2.916970         3.125416        -0.361090
 H         0.485417         2.903971         0.252894
 H        -0.068515         0.408456        -1.448760
 H        -0.929555         2.092732        -1.349283
 H         0.620634         1.607379        -3.567338
 H         0.024071         0.318967         1.344836
