19
Iteration:  4396charge 0 multiplicity 1
 C         3.087389         3.415340        -2.923697
 C         2.084784         2.601718        -2.223344
 C         1.951241         2.938554        -0.751379
 C         1.014881         1.755457        -0.266302
 C         0.788565         0.710962        -1.469948
 C         1.458003         1.298719        -2.633540
 O         0.831010         2.566604        -3.012960
 C         1.563221         1.171604         1.005284
 O         1.132837         0.119271         1.506800
 H         2.694815         4.542194        -3.047928
 H         4.196413         3.520824        -2.648300
 H         3.180945         3.082247        -3.996748
 H         2.906229         2.906948        -0.252844
 H         1.391764         3.935257        -0.587446
 H         0.038049         2.227876        -0.020971
 H         1.196250        -0.280059        -1.235187
 H        -0.271596         0.480582        -1.735703
 H         1.881794         0.856776        -3.533380
 H         2.552244         1.619603         1.331755
