19
Iteration:  2837
 C         3.457052         2.803543        -2.745733
 C         2.103406         2.399027        -2.254689
 C         1.885744         2.837797        -0.755487
 C         0.744884         1.837861        -0.213823
 C         0.219403         1.077134        -1.498771
 C         1.037844         1.465080        -2.717310
 O         0.959328         2.820176        -2.980363
 C         1.597883         0.774606         0.559505
 O         1.774628         0.618263         1.755114
 H         3.616897         3.862105        -2.509461
 H         4.190731         2.065309        -2.323064
 H         3.389200         2.875903        -3.902816
 H         2.902507         2.725405        -0.330472
 H         1.587865         3.829480        -0.745533
 H        -0.123039         2.234284         0.454049
 H         0.359299        -0.038164        -1.324893
 H        -0.885178         1.050115        -1.513410
 H         1.200736         0.627929        -3.580583
 H         2.050374         0.023308        -0.079496
