19
Iteration:  4855charge 0 multiplicity 1
 C         3.420329         2.985874        -2.494513
 C         1.993070         2.560238        -2.037820
 C         1.327235         3.135502        -0.771924
 C         0.527299         1.936226        -0.202316
 C         0.210192         0.959823        -1.329037
 C         1.429026         1.232299        -2.284212
 O         1.137614         2.333230        -3.123386
 C         1.393832         1.168294         0.900948
 O         2.250422         0.338395         0.609767
 H         3.557287         4.105040        -2.519822
 H         4.153939         2.625426        -1.686124
 H         3.548501         2.669513        -3.536606
 H         2.340486         3.263879        -0.110090
 H         0.929109         4.062688        -0.948203
 H        -0.365393         2.345796         0.324718
 H         0.184742         0.012962        -0.993004
 H        -0.650547         1.232521        -1.918430
 H         1.927775         0.391409        -2.807279
 H         1.161342         1.385587         2.018838
