19
Iteration:  2282charge 0 multiplicity 1
 C         3.360998         2.590025        -2.931263
 C         2.086490         2.571849        -2.273902
 C         2.006806         2.813210        -0.771442
 C         0.896821         1.803183        -0.179934
 C         0.188095         1.270252        -1.430974
 C         1.052468         1.594476        -2.612160
 O         0.917748         2.957076        -3.083647
 C         1.771154         0.731942         0.694612
 O         1.551012         0.337968         1.795137
 H         4.084390         3.445903        -2.889659
 H         3.954658         1.700274        -2.515927
 H         3.220247         2.348756        -4.065028
 H         2.931885         2.896463        -0.241785
 H         1.672822         3.807756        -0.711278
 H         0.213090         2.378035         0.368617
 H         0.003057         0.180740        -1.404571
 H        -0.838494         1.558781        -1.547265
 H         0.929634         0.846549        -3.366761
 H         2.554842         0.225020         0.077390
