19
Iteration:    62charge 0 multiplicity 1
 C         3.234971         2.605069        -3.478870
 C         2.147216         2.431658        -2.451060
 C         2.565825         2.361387        -0.919872
 C         1.401895         1.947504        -0.133404
 C         0.577729         1.179582        -1.214826
 C         0.961322         1.728915        -2.568778
 O         0.938979         3.240194        -2.577418
 C         1.507269         0.873796         1.020727
 O         0.595168         0.253905         1.503213
 H         3.816927         3.538089        -3.090303
 H         3.986016         1.789441        -3.542060
 H         2.855564         2.919199        -4.411973
 H         3.447944         1.617460        -0.791330
 H         2.917265         3.372040        -0.602232
 H         0.800858         2.838869         0.139996
 H         0.785795         0.037558        -1.009602
 H        -0.536232         1.285540        -1.021791
 H         0.584303         1.279233        -3.584560
 H         2.589130         0.494766         1.087859
