19
Iteration:  3948
 C         3.203015         3.275088        -2.903098
 C         2.056651         2.563535        -2.162745
 C         1.814369         2.933676        -0.774855
 C         0.773609         1.803536        -0.299470
 C         0.875890         0.713802        -1.361743
 C         1.454721         1.348542        -2.627066
 O         0.816698         2.545381        -2.947951
 C         1.326678         1.306535         0.972254
 O         1.503376         0.150742         1.250347
 H         3.265456         4.262790        -2.392512
 H         4.231633         2.744580        -2.751218
 H         2.996303         3.324375        -4.082014
 H         2.702112         2.733077        -0.233485
 H         1.398886         3.899047        -0.623563
 H        -0.086242         2.322426         0.032982
 H         1.494980        -0.079834        -0.839452
 H        -0.087833         0.121572        -1.491524
 H         1.933496         0.683421        -3.295374
 H         1.544210         2.094200         1.722740
