19
Iteration:  3800
 C         3.239200         3.332375        -2.996059
 C         2.071198         2.630469        -2.276887
 C         1.993599         2.611420        -0.702648
 C         0.831725         1.735170        -0.371822
 C         0.800834         0.611385        -1.508384
 C         1.353496         1.424684        -2.658841
 O         0.795450         2.712756        -2.932818
 C         0.909771         1.134053         1.069111
 O         1.817481         0.418070         1.542794
 H         3.025964         4.437667        -3.035725
 H         4.126371         3.004956        -2.387769
 H         3.438252         3.125926        -4.075567
 H         2.868299         2.046421        -0.483522
 H         1.960907         3.603007        -0.200979
 H        -0.179243         2.301157        -0.474356
 H         1.546385        -0.177732        -1.256569
 H        -0.178463         0.183979        -1.724924
 H         1.728890         0.913798        -3.539267
 H         0.042724         1.309149         1.784385
