19
Iteration:  3647charge 0 multiplicity 1
 C         3.370446         2.998628        -2.624579
 C         2.062570         2.538458        -2.170332
 C         1.685585         2.700065        -0.682191
 C         0.726904         1.627608        -0.310089
 C         0.393317         0.774031        -1.622835
 C         1.257299         1.414369        -2.695312
 O         0.912839         2.827679        -3.081719
 C         1.173234         0.747462         0.814045
 O         2.182372         0.927330         1.510169
 H         3.492120         4.126290        -2.597495
 H         4.184542         2.497140        -2.012210
 H         3.450401         2.603279        -3.575008
 H         2.694048         2.629307        -0.093624
 H         1.438052         3.736139        -0.446044
 H        -0.234768         1.998620         0.081852
 H         0.575152        -0.360965        -1.489919
 H        -0.659378         0.856273        -1.934455
 H         1.631430         0.825377        -3.473847
 H         0.474183         0.019228         1.189966
