19
Iteration:  1635
 C         3.397874         2.372107        -2.999282
 C         2.095621         2.596093        -2.245312
 C         2.064126         2.861843        -0.751691
 C         0.948454         1.958912        -0.132147
 C         0.268469         1.182192        -1.328533
 C         0.972002         1.646197        -2.601828
 O         0.955533         3.044380        -2.989308
 C         1.589294         0.758963         0.628528
 O         1.526068         0.267622         1.651613
 H         3.644525         3.254810        -3.525980
 H         4.214732         1.886953        -2.438255
 H         3.162278         1.702760        -3.871638
 H         3.083619         2.661301        -0.300013
 H         1.866894         3.993215        -0.599218
 H         0.177226         2.423267         0.549357
 H         0.362603         0.103428        -1.312776
 H        -0.797731         1.456189        -1.271771
 H         0.663100         1.129586        -3.535670
 H         2.466690         0.491266        -0.100877
