19
Iteration:  4957charge 0 multiplicity 1
 C         3.370081         2.826726        -2.233922
 C         1.953052         2.572530        -2.140756
 C         1.218578         3.123727        -0.824325
 C         0.611123         1.809810        -0.173475
 C         0.287889         0.932885        -1.331593
 C         1.277129         1.299170        -2.411334
 O         1.126572         2.526221        -3.298108
 C         1.612654         1.295024         0.837839
 O         2.269318         0.255752         0.812944
 H         3.626126         3.913855        -2.280967
 H         3.775789         2.160376        -1.389630
 H         3.515153         2.150735        -3.141145
 H         1.870220         3.771302        -0.185562
 H         0.392713         3.917515        -0.943204
 H        -0.317025         2.050415         0.368165
 H         0.261431        -0.166373        -1.291898
 H        -0.666699         1.244192        -1.732235
 H         2.029939         0.600209        -2.882709
 H         1.823090         2.111699         1.550871
