19
Iteration:  1028charge 0 multiplicity 1
 C         3.419644         2.294836        -3.116777
 C         2.118327         2.507119        -2.346506
 C         2.255535         2.793379        -0.709840
 C         1.174826         2.031148        -0.038098
 C         0.102839         1.610644        -1.177221
 C         0.914925         1.641772        -2.463123
 O         0.934534         2.962647        -3.042454
 C         1.618016         0.709098         0.544489
 O         1.292255         0.164962         1.562558
 H         3.894784         3.314151        -3.207692
 H         4.124786         1.643612        -2.624022
 H         3.154815         1.827737        -4.194401
 H         3.291190         2.325612        -0.586423
 H         2.422723         3.868968        -0.409664
 H         0.581402         2.549351         0.779802
 H        -0.292104         0.618654        -1.009082
 H        -0.757168         2.278154        -1.183049
 H         0.809112         0.787290        -3.193272
 H         2.462394         0.293666         0.010245
