19
Iteration:  4871charge 0 multiplicity 1
 C         3.388427         2.943063        -2.405800
 C         2.033194         2.527675        -2.071064
 C         1.470783         3.103338        -0.663968
 C         0.501047         1.923210        -0.095695
 C         0.299443         0.956629        -1.339679
 C         1.388962         1.257347        -2.277933
 O         1.084746         2.341917        -3.236456
 C         1.349909         1.213964         0.820836
 O         2.216436         0.410902         0.537952
 H         3.476111         3.996488        -2.701148
 H         4.180626         2.658515        -1.689694
 H         3.621127         2.437181        -3.382973
 H         2.081039         3.306772         0.150555
 H         0.588858         3.868645        -0.812676
 H        -0.438902         2.209309         0.364122
 H         0.376585        -0.146598        -0.881326
 H        -0.711021         1.071603        -1.803474
 H         2.120174         0.498999        -2.607401
 H         1.312892         1.537002         1.911458
