19
Iteration:  4750charge 0 multiplicity 1
 C         3.435845         2.934025        -2.572901
 C         2.008227         2.637481        -2.162303
 C         1.337914         3.115833        -0.857314
 C         0.719427         1.820637        -0.261371
 C         0.490144         0.751051        -1.361780
 C         1.355340         1.339903        -2.466081
 O         0.939892         2.638556        -3.107969
 C         1.573267         1.282121         0.917630
 O         1.918564         0.139244         1.064495
 H         3.484278         4.014102        -2.705256
 H         4.080972         2.660146        -1.732238
 H         3.940975         2.473761        -3.344869
 H         2.088995         3.547679        -0.167297
 H         0.510164         3.821982        -1.296354
 H        -0.173762         2.295922         0.150126
 H         0.917479        -0.356391        -1.132346
 H        -0.617720         0.586978        -1.607299
 H         1.818832         0.627784        -3.172307
 H         1.765012         1.895816         1.866251
