19
Iteration:  2482charge 0 multiplicity 1
 C         3.216221         2.955719        -3.349538
 C         2.090047         2.591612        -2.424094
 C         2.360303         2.455027        -0.921275
 C         1.189108         1.707238        -0.235996
 C         0.565495         0.930335        -1.397708
 C         1.025182         1.496430        -2.707627
 O         0.836713         3.101559        -2.732042
 C         1.663811         0.827639         0.987563
 O         0.915490         0.511165         1.941977
 H         4.080067         3.710959        -3.000861
 H         3.798028         1.980609        -3.514163
 H         3.066792         3.343431        -4.383836
 H         3.260010         1.857329        -0.790358
 H         2.382735         3.408185        -0.491620
 H         0.341835         2.442696         0.050560
 H         1.191871         0.037494        -1.515946
 H        -0.576100         0.743435        -1.312559
 H         0.875099         1.126899        -3.750894
 H         2.774654         0.591348         0.979134
