19
Iteration:   686
 C         3.334387         2.532475        -3.473056
 C         2.190212         2.418077        -2.337267
 C         2.491791         2.086317        -0.881996
 C         1.142224         1.588829        -0.283308
 C         0.196206         1.271068        -1.454515
 C         0.788321         1.928977        -2.691474
 O         1.039991         3.324201        -2.556489
 C         1.372270         0.595802         0.809701
 O         1.276376         0.806965         2.024259
 H         3.610070         3.543158        -3.690709
 H         4.117002         1.895755        -3.412019
 H         2.754587         2.506414        -4.466534
 H         3.245941         1.295295        -1.010863
 H         3.006488         2.824513        -0.329286
 H         0.819509         2.444314         0.288861
 H         0.293351         0.233757        -1.645307
 H        -0.812377         1.590446        -1.323822
 H         0.613547         1.592473        -3.686849
 H         1.678865        -0.449227         0.590049
