19
Iteration:  2667
 C         3.205227         2.995975        -3.390844
 C         2.184274         2.510080        -2.382234
 C         2.301223         2.523388        -0.878156
 C         1.126176         1.621364        -0.168435
 C         0.661824         0.851787        -1.557906
 C         1.058133         1.615051        -2.801387
 O         0.836745         2.992343        -2.724035
 C         1.524434         0.703772         0.958417
 O         1.039423         0.746342         2.061537
 H         3.667930         3.826002        -2.786800
 H         4.038211         2.289675        -3.600144
 H         2.715854         3.416384        -4.229263
 H         3.146577         1.875720        -0.603552
 H         2.138510         3.563450        -0.470100
 H         0.271157         2.191818         0.331391
 H         1.067348        -0.145475        -1.662824
 H        -0.498115         0.857775        -1.596731
 H         1.114852         1.257281        -3.826772
 H         2.147333        -0.190645         0.737350
