19
Iteration:  1473
 C         3.448231         2.458499        -3.011246
 C         2.084147         2.448954        -2.189882
 C         2.028681         2.459823        -0.713237
 C         0.835794         1.638905        -0.273892
 C         0.078202         1.166492        -1.561185
 C         0.857646         1.759764        -2.707440
 O         1.063081         3.200520        -2.839773
 C         1.508341         0.672386         0.594504
 O         1.825376         0.742467         1.835670
 H         3.529435         3.603242        -3.017262
 H         4.299108         1.984481        -2.495395
 H         3.531844         2.108689        -4.078992
 H         2.965269         2.054018        -0.328399
 H         1.872104         3.357472        -0.243709
 H         0.184991         2.105333         0.469526
 H        -0.231683         0.079358        -1.626230
 H        -0.905544         1.738728        -1.588976
 H         0.952735         1.341867        -3.685269
 H         2.083577        -0.093201         0.041735
