19
Iteration:  4173
 C         3.186024         3.304918        -2.907622
 C         2.089157         2.622083        -2.286538
 C         2.010484         2.572897        -0.741393
 C         0.788108         1.677952        -0.419287
 C         0.961556         0.559621        -1.546641
 C         1.369034         1.401063        -2.802376
 O         0.749958         2.745501        -2.775594
 C         1.056564         1.307728         1.061031
 O         1.596152         0.361787         1.543201
 H         3.109028         4.407116        -2.781173
 H         4.213420         2.895636        -2.582650
 H         3.224350         3.247509        -4.074920
 H         2.953157         2.210457        -0.415910
 H         2.055265         3.576338        -0.204419
 H        -0.221798         2.062204        -0.604415
 H         1.878545         0.242978        -1.145760
 H         0.199457        -0.200631        -1.650823
 H         1.404697         1.006459        -3.821875
 H         0.687986         2.070619         1.736476
