19
Iteration:  3902charge 0 multiplicity 1
 C         3.127682         3.429409        -2.974968
 C         2.067545         2.601686        -2.293422
 C         2.066816         2.692427        -0.744760
 C         0.884189         1.774011        -0.338376
 C         0.786353         0.742008        -1.471625
 C         1.474223         1.367315        -2.634411
 O         0.800985         2.564421        -2.987583
 C         1.043783         1.236873         1.134087
 O         1.624604         0.224286         1.491232
 H         3.155059         4.430235        -2.458926
 H         4.145306         3.016216        -2.818985
 H         3.082269         3.425733        -4.197239
 H         2.975269         2.335698        -0.336481
 H         1.744763         3.638461        -0.463220
 H        -0.060716         2.314066        -0.336489
 H         1.287110        -0.276330        -1.333047
 H        -0.304223         0.398773        -1.705957
 H         1.736485         0.623722        -3.399820
 H         0.604342         1.932791         1.889205
