19
Iteration:  1640
 C         3.385045         2.360802        -3.040363
 C         2.101419         2.591950        -2.255551
 C         1.986049         2.834269        -0.746905
 C         0.982123         1.940569        -0.097318
 C         0.286989         1.236537        -1.333649
 C         0.992356         1.657537        -2.615658
 O         0.966816         3.053447        -2.973518
 C         1.595077         0.797756         0.579692
 O         1.501654         0.245787         1.692628
 H         3.725147         3.407102        -3.507126
 H         4.308067         1.963314        -2.581199
 H         3.095689         1.643773        -3.787968
 H         3.006546         2.687011        -0.387196
 H         1.855383         3.878475        -0.755389
 H         0.279773         2.323942         0.613303
 H         0.486933         0.080124        -1.246510
 H        -0.827638         1.427999        -1.262138
 H         0.766600         0.958253        -3.451473
 H         2.436697         0.421698         0.004338
