19
Iteration:   734
 C         3.444138         2.394058        -3.195271
 C         2.179071         2.362754        -2.397026
 C         2.371016         2.304416        -0.793232
 C         0.997520         1.867300        -0.234189
 C         0.100364         1.337446        -1.414485
 C         0.778849         1.862385        -2.667817
 O         0.973274         3.184652        -2.653112
 C         1.385644         0.679670         0.647090
 O         1.559189         0.612534         1.834599
 H         4.127618         3.216059        -2.959446
 H         3.862008         1.364687        -3.001909
 H         3.274446         2.685727        -4.167171
 H         3.124103         1.561255        -0.485538
 H         2.845845         3.304860        -0.539706
 H         0.525106         2.702320         0.350776
 H        -0.042635         0.200372        -1.497661
 H        -0.842031         1.927351        -1.325222
 H         0.426652         1.439323        -3.629730
 H         1.679696        -0.229043         0.051146
