19
Iteration:  4795
 C         3.384289         2.918592        -2.401870
 C         1.952473         2.587850        -2.152483
 C         1.418684         3.128392        -0.754827
 C         0.600173         1.835092        -0.205297
 C         0.343052         0.797018        -1.363858
 C         1.326576         1.270757        -2.405444
 O         1.034725         2.558887        -3.227917
 C         1.519054         1.303562         0.853042
 O         2.105050         0.243649         0.887461
 H         3.551482         3.985592        -2.492942
 H         4.024222         2.484935        -1.685235
 H         3.781407         2.418887        -3.285068
 H         2.277319         3.339154        -0.093049
 H         0.772387         4.090281        -0.919648
 H        -0.333926         2.075124         0.334272
 H         0.649659        -0.258570        -0.868055
 H        -0.630232         0.619350        -1.873068
 H         1.929894         0.784615        -3.126855
 H         1.806341         2.109888         1.609539
