19
Iteration:  2742
 C         3.443225         2.862014        -2.967024
 C         2.095607         2.429677        -2.266412
 C         2.095665         2.656336        -0.826644
 C         0.848896         1.763259        -0.334933
 C         0.341959         0.881519        -1.512964
 C         0.994006         1.531500        -2.721790
 O         0.867683         2.985254        -2.879389
 C         1.640846         0.836570         0.725628
 O         1.495899         0.636438         1.916600
 H         3.493539         3.953556        -2.878136
 H         4.224462         2.341226        -2.388499
 H         3.499657         2.756017        -4.018242
 H         2.947156         2.153962        -0.358962
 H         2.096209         3.885182        -0.586456
 H        -0.031586         2.361024         0.119664
 H         0.602793        -0.180328        -1.449814
 H        -0.810187         0.841219        -1.628137
 H         1.020944         0.984693        -3.721521
 H         2.192384         0.040735         0.198957
