19
Iteration:  1188charge 0 multiplicity 1
 C         3.239642         2.696867        -3.382053
 C         2.186696         2.479272        -2.376892
 C         2.493074         2.236410        -0.826803
 C         1.167617         1.629449        -0.258211
 C         0.283485         1.131358        -1.439581
 C         0.952385         1.764720        -2.638577
 O         0.932367         3.224425        -2.653460
 C         1.491038         0.654282         0.744435
 O         1.115982         0.738550         1.969141
 H         3.966681         3.508315        -3.152266
 H         3.890864         1.725900        -3.462588
 H         2.866002         2.946123        -4.474906
 H         3.440306         1.529367        -0.877022
 H         2.860981         3.100662        -0.235294
 H         0.733458         2.548652         0.201786
 H         0.201210        -0.004089        -1.508571
 H        -0.772665         1.632407        -1.393091
 H         0.569085         1.326040        -3.541076
 H         2.268122        -0.202145         0.571199
