19
Iteration:  3394charge 0 multiplicity 1
 C         3.185891         3.073625        -3.246003
 C         2.093763         2.603878        -2.320666
 C         2.196459         2.593039        -0.792065
 C         1.053635         1.636580        -0.307741
 C         0.664051         0.696931        -1.514275
 C         1.185579         1.556172        -2.695448
 O         0.799679         2.890934        -2.789726
 C         1.557659         0.766312         0.821297
 O         1.101335         0.762562         1.959364
 H         3.438820         4.155331        -3.319812
 H         4.203572         2.502052        -3.035441
 H         2.908383         2.752124        -4.220916
 H         3.232173         2.256965        -0.251079
 H         2.008360         3.597998        -0.180289
 H         0.192700         2.146064         0.050267
 H         1.283717        -0.212990        -1.518523
 H        -0.417193         0.580468        -1.523777
 H         1.452111         1.018909        -3.640092
 H         2.593250         0.244664         0.622937
