19
Iteration:  3435charge 0 multiplicity 1
 C         3.310244         3.155331        -3.048764
 C         2.121153         2.605387        -2.315638
 C         2.031641         2.674927        -0.827515
 C         0.983828         1.655580        -0.290067
 C         0.487821         0.846406        -1.546493
 C         1.203529         1.408802        -2.734251
 O         0.813543         2.780827        -2.949905
 C         1.446704         0.650331         0.800366
 O         1.434311         0.779462         2.038293
 H         3.577496         4.080199        -2.619282
 H         4.054023         2.432527        -2.783164
 H         3.372630         3.126560        -4.096644
 H         3.025675         2.646676        -0.516384
 H         1.948920         3.770783        -0.585465
 H         0.163462         2.308560         0.161166
 H         0.713218        -0.226935        -1.400685
 H        -0.574189         0.887123        -1.592009
 H         1.350034         0.828924        -3.627680
 H         1.954959        -0.170141         0.230445
