19
Iteration:  3909
 C         3.158054         3.447077        -2.961994
 C         2.093156         2.629455        -2.333861
 C         2.008083         2.701115        -0.755877
 C         0.870515         1.746459        -0.291996
 C         0.743763         0.705101        -1.445758
 C         1.445459         1.304612        -2.644951
 O         0.815280         2.540558        -2.969208
 C         1.116632         1.280037         1.144068
 O         1.599832         0.214952         1.434392
 H         3.266027         4.441540        -2.490658
 H         4.158175         3.062887        -2.806058
 H         2.979657         3.551953        -3.993961
 H         3.018016         2.517508        -0.270194
 H         1.988931         3.807015        -0.387326
 H        -0.181625         2.238726        -0.416253
 H         1.229687        -0.226724        -1.223227
 H        -0.291701         0.555281        -1.662782
 H         1.965428         0.772115        -3.513531
 H         0.577273         2.001991         1.819117
