19
Iteration:  2856charge 0 multiplicity 1
 C         3.459307         2.750738        -2.723748
 C         2.090071         2.451501        -2.183529
 C         1.829037         2.753636        -0.731345
 C         0.802658         1.749808        -0.266219
 C         0.160502         1.053184        -1.465098
 C         1.059295         1.409647        -2.613161
 O         0.933761         2.867579        -3.027488
 C         1.689359         0.803350         0.480457
 O         1.735449         0.704246         1.686827
 H         3.783854         3.690449        -2.266295
 H         4.108571         2.021464        -2.291181
 H         3.475189         2.907429        -3.856365
 H         2.861762         2.664223        -0.187486
 H         1.401930         3.776020        -0.686419
 H         0.200579         2.219779         0.432537
 H         0.045723        -0.037066        -1.312256
 H        -0.785663         1.490061        -1.680825
 H         1.173679         0.795313        -3.506522
 H         2.527092         0.270218        -0.142508
