19
Iteration:  2790charge 0 multiplicity 1
 C         3.386811         2.731783        -2.964175
 C         2.063106         2.565908        -2.178234
 C         1.871073         2.856823        -0.659770
 C         0.992792         1.650759        -0.241247
 C         0.255170         1.080105        -1.580226
 C         1.190630         1.525093        -2.711802
 O         0.887274         2.917022        -3.027616
 C         1.614571         0.533742         0.673836
 O         1.586999         0.733092         1.871083
 H         3.415731         3.757061        -3.350298
 H         4.240409         2.322364        -2.458769
 H         3.242616         2.240521        -3.973495
 H         2.906332         2.631597        -0.207218
 H         1.465265         3.831835        -0.429659
 H         0.293252         2.061995         0.372344
 H         0.032857         0.006219        -1.531849
 H        -0.727984         1.442463        -1.743406
 H         1.427688         0.890354        -3.504742
 H         2.207571        -0.299738         0.301407
