19
Iteration:   422charge 0 multiplicity 1
 C         3.234703         2.079650        -3.399571
 C         2.149654         2.455463        -2.330690
 C         2.453915         2.351149        -0.903607
 C         1.296330         1.888225        -0.113553
 C         0.170931         1.656078        -1.209224
 C         0.741866         1.911678        -2.526938
 O         1.073829         3.350619        -2.661653
 C         1.690811         0.650824         0.676536
 O         1.084124         0.315676         1.677030
 H         4.177885         2.726473        -3.334542
 H         3.517258         1.023402        -3.375383
 H         2.734878         2.173254        -4.399522
 H         3.198005         1.630509        -0.828681
 H         2.691229         3.351715        -0.604936
 H         1.026968         2.535528         0.724717
 H        -0.314545         0.683241        -1.109305
 H        -0.601149         2.437388        -1.207163
 H         0.274344         1.547120        -3.540644
 H         2.481777        -0.062972         0.153945
