19
Iteration:   495charge 0 multiplicity 1
 C         3.055484         2.414143        -3.667710
 C         2.227817         2.464534        -2.448889
 C         2.739915         2.108318        -0.975866
 C         1.470134         1.838092        -0.115032
 C         0.339867         1.387965        -1.147630
 C         0.861794         1.901920        -2.470929
 O         1.038500         3.362436        -2.567648
 C         1.536181         0.747387         0.901791
 O         0.702722         0.431263         1.715512
 H         3.537358         3.360739        -3.865850
 H         3.762704         1.539056        -3.658115
 H         2.396925         2.150712        -4.388108
 H         3.374806         1.120867        -1.131117
 H         3.125287         3.050698        -0.512291
 H         1.175466         2.852690         0.310256
 H         0.307057         0.275612        -1.461223
 H        -0.668486         1.742081        -0.765851
 H         0.436458         1.481454        -3.476709
 H         2.479560         0.006949         0.721259
