19
Iteration:  2437
 C         3.274494         2.734543        -3.204097
 C         2.094356         2.568572        -2.351029
 C         2.272887         2.660665        -0.800656
 C         1.092743         1.842372        -0.231414
 C         0.478030         1.016018        -1.391955
 C         1.044993         1.551094        -2.696130
 O         0.839610         2.972795        -2.723563
 C         1.611836         0.774095         0.760728
 O         1.153825         0.486597         1.797166
 H         3.549895         3.863169        -3.080824
 H         4.097134         2.003611        -2.931523
 H         3.150265         2.728719        -4.345542
 H         3.245501         2.293508        -0.467124
 H         2.187692         3.672310        -0.542558
 H         0.318646         2.465545         0.300529
 H         0.823188        -0.012224        -1.224882
 H        -0.644849         1.118915        -1.524875
 H         0.974370         1.069640        -3.690765
 H         2.533726         0.288161         0.342843
