19
Iteration:    30
 C         3.216644         2.736102        -3.475481
 C         2.253052         2.526718        -2.342932
 C         2.556409         2.351805        -0.877180
 C         1.322317         1.693935        -0.232195
 C         0.368501         1.143545        -1.417859
 C         0.985813         1.749137        -2.621063
 O         1.000524         3.164172        -2.570682
 C         1.540284         0.692776         0.914057
 O         0.682476         0.538898         1.794840
 H         3.920447         3.627108        -3.217293
 H         3.787368         1.833805        -3.768682
 H         2.684575         2.950753        -4.357692
 H         3.475676         1.788203        -0.779152
 H         2.804777         3.297428        -0.367792
 H         0.788264         2.534798         0.237630
 H         0.614473         0.087726        -1.507255
 H        -0.735365         1.248636        -1.278081
 H         0.896712         1.314956        -3.727705
 H         2.473463        -0.041210         0.857103
