19
Iteration:  3109charge 0 multiplicity 1
 C         3.399434         2.821844        -3.119817
 C         2.088751         2.552319        -2.273430
 C         1.980467         2.835258        -0.799566
 C         0.944240         1.816289        -0.239192
 C         0.410296         0.950421        -1.443185
 C         1.129377         1.468308        -2.635530
 O         0.857146         2.910721        -2.934550
 C         1.665005         0.811405         0.714393
 O         1.369824         0.468423         1.872963
 H         3.436162         3.893623        -2.962049
 H         4.291065         2.276506        -2.721376
 H         3.157439         2.543310        -4.197954
 H         2.878104         2.627771        -0.201805
 H         1.742777         3.861776        -0.614122
 H         0.137508         2.225084         0.261077
 H         0.593662        -0.169656        -1.269181
 H        -0.640979         1.205645        -1.598234
 H         1.328516         0.703713        -3.447136
 H         2.604434         0.304693         0.323212
