19
Iteration:   208charge 0 multiplicity 1
 C         3.360678         2.243039        -3.165495
 C         2.160936         2.316633        -2.294411
 C         2.475065         2.095007        -0.827649
 C         0.986151         1.993717        -0.235325
 C         0.013830         1.371064        -1.337491
 C         0.703327         1.938271        -2.588317
 O         1.198716         3.308572        -2.525203
 C         0.931518         1.066759         1.022584
 O         1.925380         0.298270         1.121225
 H         4.183191         2.745326        -2.719827
 H         3.666226         1.218961        -3.103900
 H         3.344446         2.647940        -4.243492
 H         2.781243         1.130363        -0.618419
 H         3.108011         2.921345        -0.457025
 H         0.590236         2.994418        -0.023916
 H        -0.080911         0.248950        -1.311305
 H        -1.025004         1.724313        -1.212693
 H         0.369401         1.735511        -3.517369
 H         0.101458         1.247818         1.803649
