19
Iteration:  2084
 C         3.387300         2.603395        -3.106333
 C         2.122221         2.526993        -2.252687
 C         2.066881         2.776445        -0.780057
 C         0.934097         1.804307        -0.187918
 C         0.252072         1.084797        -1.446278
 C         1.027907         1.636740        -2.606860
 O         0.922727         3.039615        -2.926621
 C         1.613399         0.788393         0.660920
 O         1.474477         0.402032         1.846250
 H         3.865064         3.618741        -3.197918
 H         4.187901         1.857755        -2.751267
 H         3.147336         2.161456        -4.040237
 H         3.105950         2.690063        -0.229184
 H         1.652300         3.772662        -0.531231
 H         0.210192         2.460000         0.312298
 H         0.643061         0.032171        -1.638707
 H        -0.844414         1.166018        -1.460025
 H         1.040077         0.966429        -3.571721
 H         2.365413         0.169393         0.059675
