19
Iteration:  3536charge 0 multiplicity 1
 C         3.362635         2.788309        -2.676436
 C         2.010658         2.559027        -2.238989
 C         1.752212         2.863843        -0.728033
 C         0.838595         1.506662        -0.305259
 C         0.403877         0.757679        -1.573895
 C         1.187667         1.557976        -2.778804
 O         0.858218         2.911925        -3.041956
 C         1.586000         0.625378         0.647437
 O         1.805493         0.986786         1.795842
 H         3.663865         3.823531        -2.743645
 H         4.105030         2.330551        -1.962291
 H         3.464641         2.410295        -3.634615
 H         2.588752         2.941012        -0.016849
 H         1.106039         3.808679        -0.461058
 H         0.039966         1.861394         0.319883
 H         0.900583        -0.231980        -1.426938
 H        -0.642687         0.846496        -1.791751
 H         1.517342         0.913647        -3.668150
 H         1.523771        -0.364912         0.190661
