19
Iteration:  2363
 C         3.380787         2.724832        -3.168949
 C         2.149131         2.571962        -2.323529
 C         2.119446         2.716876        -0.725242
 C         0.908334         1.797614        -0.161294
 C         0.176133         1.192107        -1.421051
 C         1.042877         1.551467        -2.587648
 O         0.935438         2.938560        -2.972435
 C         1.634397         0.771529         0.716881
 O         1.430474         0.343241         1.814793
 H         3.736713         3.816138        -3.243630
 H         4.231566         2.239476        -2.690916
 H         3.296182         2.311964        -4.166927
 H         3.118536         2.290679        -0.451460
 H         1.938385         3.765565        -0.387425
 H         0.228918         2.486222         0.471811
 H         0.242130         0.113334        -1.412972
 H        -0.876821         1.723070        -1.421969
 H         1.189138         0.744436        -3.359161
 H         2.678704         0.686129         0.264372
