19
Iteration:   513
 C         3.025504         2.460835        -3.655734
 C         2.174484         2.437395        -2.412151
 C         2.766349         2.124890        -1.015414
 C         1.466150         1.725801        -0.210082
 C         0.378205         1.287788        -1.270412
 C         0.811112         1.916587        -2.536545
 O         1.079916         3.346323        -2.396287
 C         1.595811         0.690012         0.928235
 O         0.669077         0.607430         1.711038
 H         3.616436         3.392435        -3.629516
 H         3.698136         1.553256        -3.693182
 H         2.353764         2.302705        -4.600322
 H         3.233104         1.206999        -1.289216
 H         3.290433         2.917395        -0.464364
 H         1.092388         2.657123         0.185027
 H         0.270415         0.257116        -1.104776
 H        -0.604821         1.670664        -1.098625
 H         0.473156         1.496048        -3.392739
 H         2.542581         0.196771         1.164167
