19
Iteration:   246
 C         3.270541         2.094680        -3.277018
 C         2.189448         2.294058        -2.284110
 C         2.442213         2.284120        -0.697791
 C         0.916092         1.948769        -0.134163
 C         0.030705         1.584209        -1.421624
 C         0.843875         2.026726        -2.638050
 O         1.155061         3.375261        -2.671911
 C         0.945975         0.724052         0.925030
 O         2.000474         0.321448         1.388521
 H         4.267926         2.645706        -3.012430
 H         3.492298         0.962893        -3.183630
 H         2.983171         2.421027        -4.258365
 H         3.256270         1.466034        -0.526742
 H         2.806257         3.235322        -0.276469
 H         0.436670         2.809670         0.386631
 H        -0.269677         0.554248        -1.508405
 H        -0.942401         2.079665        -1.348931
 H         0.445376         1.573902        -3.690582
 H        -0.024149         0.248812         1.311424
