19
Iteration:  1707charge 0 multiplicity 1
 C         3.410230         2.725912        -3.080242
 C         2.114608         2.434505        -2.338062
 C         2.317200         2.759981        -0.829938
 C         1.133439         1.893458        -0.104578
 C         0.193873         1.290859        -1.301795
 C         0.959448         1.521736        -2.576934
 O         0.813295         2.939617        -3.008782
 C         1.644977         0.763189         0.685727
 O         1.257096         0.294512         1.735358
 H         3.750869         3.808695        -2.771322
 H         4.188896         1.951858        -2.956071
 H         3.177598         2.706841        -4.195254
 H         3.253798         2.243802        -0.616569
 H         2.417185         3.743050        -0.359321
 H         0.562995         2.533204         0.577676
 H         0.018208         0.142814        -1.123431
 H        -0.783694         1.808466        -1.431402
 H         0.942442         0.809260        -3.372756
 H         2.624476         0.432001         0.198393
