19
Iteration:  2690charge 0 multiplicity 1
 C         3.284761         2.946450        -3.292699
 C         2.126408         2.626517        -2.285799
 C         2.260367         2.610151        -0.789082
 C         1.134545         1.596483        -0.307083
 C         0.482787         0.852329        -1.512518
 C         1.122978         1.523577        -2.673288
 O         0.813184         3.000115        -2.822520
 C         1.477862         0.645419         0.830165
 O         1.186987         0.756091         1.995893
 H         3.970996         3.750127        -2.889421
 H         3.899406         2.026315        -3.346235
 H         2.790705         3.208097        -4.210508
 H         3.274080         2.249415        -0.476860
 H         1.874320         3.574537        -0.515284
 H         0.408735         2.254443         0.160681
 H         0.785815        -0.193908        -1.577504
 H        -0.623287         1.009712        -1.574073
 H         1.186131         1.080295        -3.609012
 H         2.319024        -0.050990         0.669122
