19
Iteration:   714charge 0 multiplicity 1
 C         3.334126         2.487893        -3.282089
 C         2.131516         2.276218        -2.382447
 C         2.361293         2.204164        -0.917232
 C         1.050575         1.710608        -0.255611
 C         0.097727         1.340383        -1.381660
 C         0.786106         1.830985        -2.676870
 O         1.139463         3.312702        -2.612501
 C         1.426988         0.616568         0.711464
 O         1.433763         0.727567         1.899600
 H         3.741794         3.504603        -2.991958
 H         4.168113         1.674752        -3.053805
 H         3.089922         2.674266        -4.310846
 H         3.303622         1.683608        -0.606765
 H         2.686043         3.256502        -0.596249
 H         0.716272         2.497701         0.445892
 H         0.179636         0.197206        -1.406690
 H        -0.959197         1.770528        -1.387559
 H         0.492089         1.570880        -3.763319
 H         1.728997        -0.449773         0.333758
