19
Iteration:  2708
 C         3.338466         2.876352        -3.124453
 C         2.121957         2.582587        -2.333071
 C         2.168915         2.620371        -0.744182
 C         0.959840         1.700341        -0.271236
 C         0.470860         0.883041        -1.485021
 C         1.125482         1.547830        -2.699678
 O         0.776321         2.943128        -2.805744
 C         1.621169         0.713283         0.737062
 O         1.280086         0.746060         1.879237
 H         3.821457         3.722755        -2.682042
 H         4.084546         2.064100        -3.056212
 H         3.015247         2.967801        -4.170945
 H         3.119058         2.113292        -0.655902
 H         2.325553         3.786544        -0.354769
 H         0.127403         2.337352         0.237900
 H         0.797892        -0.163750        -1.456403
 H        -0.662220         1.002009        -1.544379
 H         1.256402         0.899493        -3.677338
 H         2.097197        -0.221987         0.268936
