19
Iteration:  4880charge 0 multiplicity 1
 C         3.402141         2.887916        -2.396665
 C         2.012686         2.534679        -2.053713
 C         1.398226         3.086224        -0.661026
 C         0.501443         1.883780        -0.143404
 C         0.316537         0.928416        -1.274458
 C         1.391269         1.270418        -2.388027
 O         1.095712         2.347754        -3.177424
 C         1.376796         1.241013         0.893303
 O         2.201087         0.435368         0.486687
 H         3.391574         3.999008        -2.665412
 H         4.087432         2.783315        -1.424939
 H         3.705459         2.310488        -3.245255
 H         2.180658         3.440343         0.091600
 H         0.896932         4.133243        -0.928617
 H        -0.371158         2.249457         0.359433
 H         0.397447        -0.145512        -1.045385
 H        -0.591215         1.133169        -1.843232
 H         1.978885         0.452657        -2.954057
 H         1.390284         1.706327         1.969054
