19
Iteration:   219
 C         3.358297         2.198921        -3.192923
 C         2.169522         2.317477        -2.294285
 C         2.353071         2.110995        -0.798752
 C         0.902405         1.986939        -0.174227
 C         0.019482         1.451022        -1.315816
 C         0.736416         1.933340        -2.575671
 O         1.254276         3.335677        -2.580987
 C         1.020941         1.008358         0.905864
 O         1.937853         0.315984         1.196549
 H         4.144085         2.725935        -2.729176
 H         3.618151         1.173265        -3.347167
 H         3.092690         2.608274        -4.245262
 H         2.945870         1.258482        -0.702165
 H         2.935723         2.832201        -0.203245
 H         0.476336         2.925089         0.213929
 H         0.165885         0.341166        -1.378484
 H        -1.050029         1.711831        -1.229401
 H         0.363144         1.630782        -3.473752
 H         0.117004         0.904294         1.615069
