19
Iteration:  1639
 C         3.386383         2.358861        -3.030799
 C         2.099546         2.597459        -2.253035
 C         1.996984         2.838862        -0.747204
 C         0.977869         1.946051        -0.103817
 C         0.286214         1.227524        -1.333375
 C         0.991144         1.656123        -2.613030
 O         0.965196         3.050686        -2.976908
 C         1.589990         0.789013         0.591075
 O         1.508085         0.250297         1.682560
 H         3.714149         3.413010        -3.526522
 H         4.303419         1.941426        -2.560918
 H         3.105402         1.656285        -3.792812
 H         3.037072         2.681613        -0.370560
 H         1.867757         3.884502        -0.740579
 H         0.267162         2.325400         0.603155
 H         0.473526         0.049387        -1.257590
 H        -0.850135         1.445098        -1.255332
 H         0.721954         0.983545        -3.482275
 H         2.427594         0.449538         0.002534
