19
Iteration:  2272charge 0 multiplicity 1
 C         3.382948         2.564224        -2.954516
 C         2.071423         2.557098        -2.261908
 C         1.936472         2.886574        -0.763158
 C         0.954277         1.812980        -0.180179
 C         0.098783         1.233962        -1.432536
 C         0.979962         1.549473        -2.706165
 O         1.026434         2.958135        -3.031499
 C         1.754576         0.764942         0.666253
 O         1.574013         0.322686         1.827892
 H         3.748974         3.603617        -2.951365
 H         4.016422         1.748395        -2.564503
 H         3.103559         2.338393        -4.063624
 H         2.824614         2.554853        -0.216793
 H         1.756323         3.852212        -0.505703
 H         0.310990         2.271494         0.512733
 H        -0.000118         0.154294        -1.363985
 H        -0.851963         1.768636        -1.621515
 H         1.223176         0.910397        -3.504072
 H         2.701066         0.479469         0.149938
