19
Iteration:   275
 C         3.298982         2.047800        -3.222139
 C         2.178133         2.305396        -2.324079
 C         2.319203         2.365663        -0.814031
 C         1.045993         1.836705        -0.244647
 C         0.000474         1.661959        -1.289741
 C         0.824366         2.051989        -2.583269
 O         1.191360         3.395067        -2.683583
 C         1.081177         0.590436         0.709516
 O         1.900634         0.353217         1.584555
 H         4.086561         2.723318        -3.191169
 H         3.673468         1.083165        -2.895634
 H         2.877421         2.052172        -4.275837
 H         3.088218         1.730601        -0.585511
 H         2.430834         3.408676        -0.502937
 H         0.692021         2.544378         0.527287
 H        -0.586495         0.710571        -1.302745
 H        -0.769568         2.414709        -1.049548
 H         0.562445         1.583423        -3.496566
 H         0.100904         0.079448         0.606506
