19
Iteration:  3995
 C         3.357214         3.147481        -2.923790
 C         1.984781         2.705130        -2.290697
 C         1.638583         3.073456        -0.809009
 C         0.926560         1.814351        -0.255417
 C         0.878815         0.781454        -1.424373
 C         1.442539         1.438894        -2.601456
 O         0.774623         2.617330        -3.087294
 C         1.365298         1.167474         1.113110
 O         1.525745        -0.026856         1.435767
 H         3.280747         4.186475        -3.324970
 H         4.263967         2.918262        -2.225912
 H         3.322692         2.448240        -3.683390
 H         2.508116         3.198457        -0.075505
 H         0.870859         3.952202        -0.936516
 H        -0.099031         2.131609        -0.019123
 H         1.488062        -0.071746        -1.154326
 H        -0.049257         0.311794        -1.433471
 H         1.741960         0.730482        -3.419494
 H         1.318853         1.789976         2.003870
