19
Iteration:  1626charge 0 multiplicity 1
 C         3.393241         2.385335        -2.975912
 C         2.095142         2.517701        -2.263866
 C         2.161832         2.919805        -0.752038
 C         0.887049         1.937529        -0.163217
 C         0.216169         1.165149        -1.334797
 C         0.912080         1.647534        -2.572501
 O         0.930954         3.060502        -2.977638
 C         1.676796         0.804101         0.529903
 O         1.528582         0.260728         1.696351
 H         3.874062         3.364230        -3.391254
 H         4.067534         1.952256        -2.200997
 H         3.314200         1.704101        -3.828963
 H         3.104857         2.581222        -0.218929
 H         1.890377         3.906768        -0.374473
 H         0.183178         2.634408         0.302690
 H         0.221224         0.007994        -1.279139
 H        -0.910141         1.421979        -1.412263
 H         0.993471         1.022792        -3.525263
 H         2.378344         0.350444        -0.156277
