19
Iteration:  2303
 C         3.496647         2.554781        -2.949412
 C         2.090438         2.524295        -2.310390
 C         1.947366         2.904606        -0.775124
 C         1.057967         1.830497        -0.101361
 C         0.261160         1.167934        -1.310897
 C         1.004023         1.598585        -2.673381
 O         0.820574         2.959711        -3.005706
 C         1.650433         0.676770         0.591987
 O         1.486173         0.429361         1.701877
 H         3.970662         3.551848        -2.735915
 H         4.218819         1.703905        -2.625739
 H         3.447090         2.589240        -4.115327
 H         2.849536         2.768275        -0.228348
 H         1.737144         3.931165        -0.524980
 H         0.408674         2.319798         0.583818
 H         0.067585         0.075850        -1.221358
 H        -0.755486         1.442382        -1.390630
 H         1.259752         0.840574        -3.440657
 H         2.363813         0.072449        -0.073769
