19
Iteration:  4487charge 0 multiplicity 1
 C         3.116899         3.488692        -3.220274
 C         2.100668         2.707069        -2.312599
 C         2.073660         2.776090        -0.769003
 C         1.029480         1.692433        -0.344924
 C         1.149579         0.580368        -1.352208
 C         1.449982         1.395981        -2.668998
 O         0.701678         2.635281        -2.764788
 C         1.209729         1.251457         1.082324
 O         1.083513         0.091821         1.497218
 H         3.140082         4.618664        -2.787702
 H         4.224170         3.070047        -2.990173
 H         2.819800         3.404292        -4.287237
 H         3.045837         2.533091        -0.325826
 H         1.856984         3.808281        -0.576846
 H         0.013060         2.123057        -0.402038
 H         1.921945        -0.081093        -1.100638
 H         0.316123        -0.098600        -1.401354
 H         1.660404         0.705972        -3.567148
 H         1.436671         2.157278         1.770957
