19
Iteration:  1163charge 0 multiplicity 1
 C         3.325562         2.467827        -3.285624
 C         2.122710         2.416227        -2.393711
 C         2.326368         2.458911        -0.875986
 C         1.191912         1.690663        -0.240391
 C         0.280726         1.205871        -1.410442
 C         0.828508         1.808662        -2.731446
 O         0.993767         3.240725        -2.619047
 C         1.637323         0.683690         0.796586
 O         1.123568         0.590573         1.873975
 H         3.904414         3.389450        -3.060933
 H         4.142340         1.589478        -3.403544
 H         2.955645         2.698913        -4.248892
 H         3.364010         2.044830        -0.719736
 H         2.476243         3.517327        -0.455431
 H         0.681474         2.445803         0.389269
 H         0.435611         0.137703        -1.458188
 H        -0.738246         1.494812        -1.199701
 H         0.522780         1.347745        -3.706843
 H         2.386229        -0.126864         0.519576
