19
Iteration:  3024charge 0 multiplicity 1
 C         3.425375         2.697690        -2.802988
 C         2.090812         2.631195        -2.244241
 C         1.815198         2.977271        -0.811775
 C         0.915905         1.837690        -0.168850
 C         0.308181         1.029046        -1.410601
 C         1.132405         1.487098        -2.642704
 O         0.840774         2.800684        -3.119506
 C         1.656677         0.677684         0.591251
 O         1.636330         0.498421         1.787363
 H         3.932209         3.708119        -2.713226
 H         4.188075         2.081278        -2.272091
 H         3.451617         2.636495        -3.799357
 H         2.883325         3.103678        -0.253821
 H         1.260386         3.856682        -0.927059
 H         0.188833         2.269169         0.637643
 H         0.143545        -0.040665        -1.345082
 H        -0.713097         1.441432        -1.527999
 H         1.361830         0.766008        -3.412526
 H         2.114775        -0.054358        -0.170732
