19
Iteration:  4584charge 0 multiplicity 1
 C         3.124551         3.400143        -3.027688
 C         2.074131         2.674275        -2.261713
 C         2.061255         2.740634        -0.737721
 C         0.958346         1.563190        -0.393947
 C         1.093685         0.528207        -1.481988
 C         1.325609         1.450359        -2.693112
 O         0.768069         2.730809        -2.845567
 C         1.095561         1.291299         1.036815
 O         1.373774         0.211479         1.579233
 H         3.011772         4.441599        -2.857942
 H         4.100632         2.974842        -2.792240
 H         2.948724         3.124463        -3.970214
 H         2.995392         2.351121        -0.231347
 H         1.770850         3.847857        -0.551435
 H         0.046755         2.172218        -0.632071
 H         2.003793        -0.159437        -1.474099
 H         0.221157        -0.209963        -1.530535
 H         1.657821         0.999168        -3.683892
 H         0.745918         2.190719         1.722421
