19
Iteration:  4665
 C         3.215201         3.303783        -2.864597
 C         2.108088         2.559461        -2.161031
 C         1.693786         2.990912        -0.803386
 C         0.789429         1.837249        -0.192082
 C         0.663603         0.739246        -1.351056
 C         1.499947         1.303212        -2.538071
 O         0.919129         2.508806        -3.013376
 C         1.401729         1.278547         1.080574
 O         1.555809         0.054640         1.119151
 H         2.948050         4.408420        -2.970400
 H         4.227855         3.331240        -2.470013
 H         3.050832         3.053332        -3.967514
 H         2.641783         3.016494        -0.155112
 H         1.370351         4.032664        -0.890866
 H        -0.141771         2.441369        -0.101264
 H         1.210195        -0.131614        -1.131285
 H        -0.336042         0.510679        -1.565056
 H         1.863516         0.710059        -3.344221
 H         1.686614         2.032361         1.865884
