19
Iteration:  2546charge 0 multiplicity 1
 C         2.963752         3.101677        -3.505218
 C         2.171070         2.560513        -2.373591
 C         2.700303         2.274911        -0.905033
 C         1.368290         1.674867        -0.349667
 C         0.843876         0.725456        -1.441021
 C         1.115234         1.605266        -2.639196
 O         0.775105         3.007806        -2.385673
 C         1.458188         0.860353         0.916041
 O         0.622296         0.774025         1.838097
 H         3.274532         4.197906        -3.334135
 H         3.983963         2.647062        -3.646196
 H         2.286646         2.958656        -4.374210
 H         3.350140         1.330120        -1.156167
 H         3.246365         3.158011        -0.385896
 H         0.564115         2.503977        -0.318593
 H         1.353042        -0.245428        -1.480782
 H        -0.301438         0.651017        -1.183667
 H         0.728398         1.187856        -3.619161
 H         2.257443         0.086888         0.886373
