19
Iteration:  2266
 C         3.401444         2.550588        -3.004196
 C         2.066800         2.494635        -2.216576
 C         1.916589         2.863328        -0.740671
 C         0.940821         1.834372        -0.176568
 C         0.101311         1.210691        -1.466720
 C         0.968726         1.551163        -2.686809
 O         1.023348         2.986007        -3.030996
 C         1.742498         0.760644         0.685696
 O         1.579674         0.349477         1.779398
 H         3.797546         3.568475        -2.850900
 H         4.246528         1.954700        -2.594547
 H         3.198875         2.305754        -3.996125
 H         3.000299         2.588388        -0.464570
 H         1.624635         3.972069        -0.421279
 H         0.253064         2.156900         0.703984
 H        -0.098457         0.137415        -1.292405
 H        -0.825062         1.851099        -1.371604
 H         1.325156         0.920168        -3.562810
 H         2.749218         0.596401         0.168990
