19
Iteration:   337
 C         3.286569         2.043984        -3.239708
 C         2.118556         2.326829        -2.279743
 C         2.370107         2.275615        -0.767931
 C         1.027194         1.902072        -0.149751
 C        -0.046427         1.859217        -1.272433
 C         0.722578         1.936899        -2.605088
 O         1.161716         3.330162        -2.657966
 C         1.445737         0.551612         0.462773
 O         1.623874         0.417714         1.654747
 H         4.047611         2.870290        -3.293184
 H         3.764652         1.183572        -2.806324
 H         3.042357         1.709129        -4.305350
 H         3.322562         1.611148        -0.562747
 H         2.833287         3.226572        -0.333139
 H         0.878079         2.460126         0.757463
 H        -0.648984         0.935871        -1.090200
 H        -0.715219         2.731021        -1.321074
 H         0.523099         1.488489        -3.543512
 H         1.874959        -0.311578        -0.194019
