19
Iteration:  4142charge 0 multiplicity 1
 C         3.289210         3.144182        -3.006473
 C         2.046437         2.713891        -2.236974
 C         1.910423         2.850635        -0.719472
 C         0.967219         1.676554        -0.437490
 C         0.989617         0.534203        -1.463303
 C         1.386409         1.499793        -2.665890
 O         0.684337         2.714351        -2.849855
 C         0.978398         1.226310         1.036941
 O         1.618766         0.263457         1.469184
 H         3.423653         4.143979        -2.613954
 H         4.113481         2.501768        -2.713036
 H         3.037825         3.049215        -4.181304
 H         3.061120         2.781015        -0.182172
 H         1.534382         3.818918        -0.249833
 H        -0.147475         2.107673        -0.500588
 H         1.863045        -0.072327        -1.292612
 H        -0.054713         0.076984        -1.524650
 H         1.694438         0.996663        -3.579225
 H         0.388523         1.795130         1.856193
