19
Iteration:  2294charge 0 multiplicity 1
 C         3.481927         2.553334        -2.974361
 C         2.090058         2.527319        -2.265073
 C         1.976001         2.838012        -0.771127
 C         0.983405         1.829903        -0.113369
 C         0.251128         1.203840        -1.372801
 C         1.024382         1.607068        -2.615329
 O         0.813933         2.982020        -3.077825
 C         1.669383         0.717416         0.567942
 O         1.515449         0.377895         1.794172
 H         3.908127         3.547050        -2.670436
 H         4.061574         1.688377        -2.568822
 H         3.416634         2.464023        -4.144609
 H         2.991069         2.816606        -0.381938
 H         1.529787         3.750750        -0.618393
 H         0.331826         2.202613         0.615799
 H         0.239126         0.123819        -1.298646
 H        -0.707322         1.744959        -1.438358
 H         1.315126         0.934538        -3.379463
 H         2.500702         0.254124        -0.023143
