19
Iteration:  3244
 C         3.116842         3.114584        -3.385870
 C         2.118610         2.554184        -2.385238
 C         2.546594         2.442011        -0.965067
 C         1.447124         1.674600        -0.352340
 C         0.958243         0.723166        -1.391980
 C         1.012446         1.558506        -2.628474
 O         0.585317         2.954401        -2.525014
 C         1.545268         0.931770         1.012426
 O         0.601800         0.622728         1.755464
 H         3.539405         4.173182        -3.157714
 H         4.085234         2.517941        -3.520993
 H         2.759570         3.175466        -4.396104
 H         3.568196         1.971741        -0.885943
 H         2.722689         3.357659        -0.445409
 H         0.698924         2.539415        -0.238877
 H         1.740975        -0.093704        -1.429974
 H         0.059361         0.076625        -1.179470
 H         0.819636         1.042148        -3.563777
 H         2.604581         0.631996         1.332474
