19
Iteration:   467charge 0 multiplicity 1
 C         3.185132         2.337550        -3.562947
 C         2.159839         2.286325        -2.484316
 C         2.610301         2.272298        -1.018051
 C         1.405659         1.979878        -0.059215
 C         0.305715         1.497962        -1.067808
 C         0.728475         1.945234        -2.519443
 O         1.143344         3.299355        -2.584736
 C         1.574586         0.719703         0.803232
 O         0.823671         0.309282         1.675738
 H         3.662370         3.359287        -3.504058
 H         3.884660         1.533173        -3.486397
 H         2.612090         2.082992        -4.553993
 H         3.158087         1.382079        -0.961677
 H         3.038644         3.220453        -0.786712
 H         1.007928         2.838350         0.472509
 H         0.120325         0.443073        -1.144194
 H        -0.572916         1.940705        -0.610803
 H         0.176877         1.540956        -3.403920
 H         2.370868         0.073084         0.466810
