19
Iteration:   674
 C         3.219591         2.556879        -3.507425
 C         2.214543         2.496251        -2.419089
 C         2.543724         1.974908        -0.976819
 C         1.180819         1.690008        -0.268174
 C         0.276180         1.225661        -1.484634
 C         0.929082         1.926041        -2.691126
 O         0.965525         3.352414        -2.462402
 C         1.343279         0.566502         0.870724
 O         1.209655         0.829412         2.050779
 H         3.757575         3.479924        -3.474726
 H         3.959424         1.847274        -3.275343
 H         2.804051         2.169747        -4.482904
 H         3.124736         1.040511        -1.001985
 H         3.066102         2.705204        -0.421436
 H         0.782246         2.563509         0.210165
 H         0.384355         0.179994        -1.567890
 H        -0.789918         1.336609        -1.379808
 H         0.613788         1.618583        -3.700584
 H         1.580150        -0.443819         0.455343
