19
Iteration:  2764
 C         3.445604         2.824691        -3.003995
 C         2.113563         2.527074        -2.309779
 C         1.963221         2.650083        -0.763451
 C         0.875661         1.613527        -0.184460
 C         0.307705         1.016379        -1.495577
 C         1.057099         1.559818        -2.728433
 O         0.925508         2.959482        -2.948300
 C         1.606970         0.682955         0.691857
 O         1.533864         0.713773         1.890165
 H         3.452466         3.902376        -3.212087
 H         4.215668         2.467720        -2.307593
 H         3.474928         2.409455        -3.976146
 H         2.957103         2.551208        -0.309713
 H         1.389373         3.711518        -0.599136
 H         0.131888         2.236446         0.411081
 H         0.434387        -0.079311        -1.549279
 H        -0.831532         1.153488        -1.584548
 H         1.144887         0.911320        -3.635851
 H         2.422697         0.083497         0.251238
