19
Iteration:  3032charge 0 multiplicity 1
 C         3.505076         2.710173        -2.791117
 C         2.042948         2.595961        -2.251530
 C         1.810987         2.964420        -0.816376
 C         0.962156         1.778975        -0.166533
 C         0.357046         1.089298        -1.365462
 C         1.176910         1.504390        -2.626588
 O         0.754331         2.833495        -3.144188
 C         1.672421         0.655442         0.547082
 O         1.583196         0.542531         1.766613
 H         3.912271         3.672133        -2.636551
 H         4.054585         1.935680        -2.259632
 H         3.385475         2.405131        -3.881832
 H         2.795684         3.034092        -0.236615
 H         1.397801         3.966032        -0.574573
 H         0.158013         2.094368         0.391661
 H         0.180344        -0.030462        -1.176901
 H        -0.704187         1.273546        -1.468073
 H         1.333361         0.697321        -3.457711
 H         2.333179        -0.036098         0.006159
