19
Iteration:  4931
 C         3.498038         2.822507        -2.259946
 C         2.008874         2.489703        -2.036735
 C         1.193560         3.107217        -0.767602
 C         0.540687         1.835156        -0.198166
 C         0.246605         0.925577        -1.429971
 C         1.244779         1.258320        -2.475401
 O         1.070376         2.507369        -3.156052
 C         1.616168         1.343068         0.818844
 O         2.288318         0.342613         0.732642
 H         3.624541         3.814882        -2.666757
 H         4.134031         2.593030        -1.419677
 H         3.667030         2.089590        -2.979668
 H         1.878258         3.634410        -0.031820
 H         0.550308         3.880996        -0.975098
 H        -0.375462         1.997570         0.445991
 H         0.381526        -0.108048        -1.256036
 H        -0.759982         1.090468        -1.863235
 H         1.851318         0.514368        -2.976896
 H         1.732677         2.100442         1.665580
