19
Iteration:   473charge 0 multiplicity 1
 C         3.147341         2.350001        -3.638401
 C         2.187127         2.314441        -2.444360
 C         2.636090         2.271013        -1.008124
 C         1.389660         1.979006        -0.089480
 C         0.361077         1.489905        -1.060693
 C         0.713931         1.951563        -2.515015
 O         1.115149         3.299868        -2.595751
 C         1.550489         0.709622         0.843589
 O         0.788768         0.318131         1.693225
 H         3.626429         3.321495        -3.614927
 H         3.961299         1.573262        -3.510536
 H         2.736940         2.193853        -4.564262
 H         3.145451         1.193602        -0.842689
 H         3.358090         3.149301        -0.859154
 H         0.998122         2.702255         0.681835
 H         0.263184         0.310510        -1.165685
 H        -0.595032         1.940478        -0.652079
 H         0.319463         1.555279        -3.525947
 H         2.455821         0.008525         0.485189
