19
Iteration:  1619charge 0 multiplicity 1
 C         3.408031         2.398067        -2.980792
 C         2.082758         2.483014        -2.273820
 C         2.125487         2.867700        -0.751967
 C         0.924138         1.908512        -0.183831
 C         0.138185         1.210297        -1.371822
 C         0.924070         1.653706        -2.591201
 O         0.909946         3.066648        -2.928679
 C         1.695039         0.809089         0.575075
 O         1.537408         0.312628         1.640578
 H         3.954470         3.413738        -2.990542
 H         4.108626         1.994102        -2.230639
 H         3.464539         1.672199        -3.769616
 H         3.086094         2.571343        -0.357671
 H         1.993277         3.924507        -0.563396
 H         0.263650         2.485818         0.463115
 H         0.321703         0.114700        -1.175835
 H        -0.942665         1.387436        -1.411606
 H         1.217889         0.798051        -3.211799
 H         2.374370         0.220224        -0.181406
