19
Iteration:  2929charge 0 multiplicity 1
 C         3.548021         2.634304        -2.715959
 C         2.057059         2.573703        -2.235944
 C         1.742364         2.942464        -0.746453
 C         0.848224         1.781636        -0.246557
 C         0.201548         1.081088        -1.412334
 C         0.978453         1.477309        -2.637651
 O         0.952862         2.864969        -3.125392
 C         1.633121         0.694638         0.540614
 O         1.821609         0.582058         1.747433
 H         3.804447         3.716577        -2.938952
 H         4.223740         2.261246        -1.908910
 H         3.629927         2.220827        -3.661115
 H         2.462040         3.099776        -0.079327
 H         0.996317         3.797354        -0.807208
 H         0.002629         2.193863         0.356822
 H         0.424180        -0.000791        -1.305206
 H        -0.918016         1.071435        -1.561103
 H         1.223009         0.868717        -3.387248
 H         2.243999         0.008380        -0.189265
