19
Iteration:  3520
 C         3.449420         2.806216        -2.728541
 C         2.024326         2.552411        -2.179810
 C         1.675809         2.741240        -0.704340
 C         0.834464         1.548918        -0.352014
 C         0.456417         0.827731        -1.678219
 C         1.138848         1.511349        -2.720494
 O         0.850946         2.907993        -2.932659
 C         1.556000         0.662731         0.668703
 O         1.796650         1.011095         1.780371
 H         3.686097         3.917144        -2.838090
 H         4.204305         2.341066        -2.097693
 H         3.569300         2.395918        -3.888018
 H         2.622688         2.795129        -0.138492
 H         1.117228         3.615640        -0.775394
 H        -0.148742         1.934446         0.172910
 H         0.755283        -0.269609        -1.670564
 H        -0.669662         0.800513        -1.642897
 H         1.347489         0.886123        -3.595351
 H         2.114905        -0.302462         0.274922
