19
Iteration:  4099
 C         3.262369         3.330721        -3.020997
 C         2.101651         2.630725        -2.245290
 C         1.887117         2.885546        -0.735544
 C         0.792906         1.823097        -0.230009
 C         0.819404         0.659393        -1.354247
 C         1.411924         1.325596        -2.532289
 O         0.838086         2.615149        -3.047454
 C         1.095684         1.208979         1.131575
 O         1.612047         0.127528         1.275431
 H         3.355644         4.369048        -2.907827
 H         4.213808         2.976883        -2.967516
 H         3.030882         3.271719        -4.173755
 H         2.915481         2.772471        -0.174461
 H         1.753677         3.914968        -0.427423
 H        -0.233947         2.301704        -0.353329
 H         1.647426         0.096338        -0.900562
 H        -0.168437         0.129583        -1.544338
 H         1.754788         0.773428        -3.394693
 H         0.654495         1.721679         2.046954
