19
Iteration:  2789
 C         3.380369         2.730394        -2.964918
 C         2.079696         2.559678        -2.184894
 C         1.877902         2.843884        -0.650741
 C         0.996002         1.653163        -0.250039
 C         0.255672         1.069573        -1.583012
 C         1.190505         1.525826        -2.706652
 O         0.879883         2.925924        -3.033250
 C         1.617989         0.539559         0.677153
 O         1.582972         0.732685         1.872090
 H         3.394190         3.758004        -3.344641
 H         4.229692         2.336306        -2.446661
 H         3.212843         2.247528        -3.923459
 H         2.906240         2.633100        -0.217142
 H         1.424217         3.872058        -0.442425
 H         0.296047         2.050351         0.360531
 H         0.041380         0.009335        -1.537027
 H        -0.734330         1.487432        -1.730200
 H         1.424124         0.913314        -3.474892
 H         2.204790        -0.293821         0.321386
