19
Iteration:  1141
 C         3.364140         2.377361        -3.266740
 C         2.128158         2.473730        -2.444531
 C         2.400432         2.541870        -0.909367
 C         1.071858         1.862575        -0.166339
 C         0.275533         1.167123        -1.331559
 C         0.820369         1.838874        -2.591167
 O         0.963848         3.263387        -2.723515
 C         1.570769         0.740565         0.771778
 O         1.201004         0.397225         1.811976
 H         4.086274         3.207332        -3.134383
 H         3.952158         1.348837        -3.008069
 H         3.187402         2.320984        -4.301980
 H         3.325205         2.183836        -0.363699
 H         2.481050         3.692054        -0.738125
 H         0.311258         2.552948         0.242691
 H         0.612763         0.109048        -1.359386
 H        -0.785078         1.217799        -1.146766
 H         0.778777         1.293418        -3.563076
 H         2.401760         0.101986         0.250750
