19
Iteration:   925charge 0 multiplicity 1
 C         3.432708         2.145884        -2.903506
 C         2.092921         2.461379        -2.234185
 C         2.151761         2.853686        -0.801015
 C         1.035269         1.924129        -0.040463
 C         0.000961         1.695878        -1.286568
 C         0.837754         1.733856        -2.496385
 O         0.995237         3.044526        -3.091412
 C         1.628389         0.581263         0.458401
 O         1.595135         0.235369         1.609509
 H         4.158475         3.002002        -2.798639
 H         3.936469         1.201214        -2.437010
 H         3.320694         1.993130        -4.030049
 H         3.234972         2.611271        -0.492662
 H         2.040532         3.855717        -0.424599
 H         0.486620         2.554004         0.665221
 H        -0.582402         0.718163        -1.228303
 H        -0.699371         2.564365        -1.433050
 H         0.831999         0.900091        -3.174786
 H         2.249218        -0.023092        -0.271801
