19
Iteration:  2517
 C         3.165052         3.048881        -3.421303
 C         2.111318         2.491909        -2.382182
 C         2.520607         2.391080        -0.907994
 C         1.360687         1.698023        -0.275740
 C         0.755877         0.825989        -1.400391
 C         1.013064         1.583467        -2.664940
 O         0.718057         2.995122        -2.469677
 C         1.605423         0.795737         0.915265
 O         0.729582         0.759152         1.726642
 H         3.683230         3.943919        -2.913976
 H         3.854456         2.187639        -3.608714
 H         2.647463         3.314293        -4.323378
 H         3.390481         1.767491        -0.812422
 H         2.911515         3.294937        -0.480255
 H         0.509056         2.357605        -0.004457
 H         1.156513        -0.203511        -1.487413
 H        -0.313616         0.592882        -1.172394
 H         0.659703         1.163753        -3.619595
 H         2.503717         0.112653         1.001428
