19
Iteration:  2418charge 0 multiplicity 1
 C         3.422516         2.800508        -3.155701
 C         2.167660         2.458697        -2.342379
 C         2.158838         2.744904        -0.888986
 C         1.163421         1.788323        -0.201071
 C         0.400848         0.954754        -1.331196
 C         1.027602         1.582046        -2.554269
 O         0.771568         3.066188        -2.835422
 C         1.642852         0.697584         0.707059
 O         1.168720         0.514148         1.757050
 H         3.602582         3.940835        -3.330377
 H         4.155636         2.097331        -2.712176
 H         3.233416         2.389186        -4.146426
 H         3.202666         2.564235        -0.529516
 H         2.064674         3.844541        -0.690080
 H         0.512565         2.407174         0.543520
 H         0.477620        -0.163200        -1.305030
 H        -0.747830         1.228419        -1.149649
 H         0.977750         0.809352        -3.394000
 H         2.236921        -0.109882         0.197681
