19
Iteration:  2726charge 0 multiplicity 1
 C         3.345088         2.859309        -2.962112
 C         2.071045         2.491734        -2.323911
 C         2.142722         2.537708        -0.823203
 C         0.951593         1.764938        -0.261100
 C         0.445126         0.955818        -1.512589
 C         1.082539         1.534796        -2.725861
 O         0.806189         2.939501        -2.827756
 C         1.489066         0.807622         0.684771
 O         1.438171         0.684285         1.877976
 H         3.714701         3.882814        -2.731435
 H         4.172976         2.171892        -2.714649
 H         3.374183         2.749124        -4.119013
 H         3.149275         2.363699        -0.340390
 H         2.002254         3.456430        -0.433129
 H         0.216193         2.421382         0.159939
 H         0.812086        -0.125256        -1.383246
 H        -0.596656         0.855219        -1.522429
 H         1.111248         0.973601        -3.679402
 H         2.373481         0.461775         0.082855
