19
Iteration:  3381
 C         3.229138         3.030924        -3.273007
 C         2.080750         2.618838        -2.307233
 C         2.240013         2.560426        -0.782360
 C         1.084361         1.600725        -0.296217
 C         0.736736         0.717791        -1.549346
 C         1.200061         1.465058        -2.775741
 O         0.712363         2.942558        -2.664905
 C         1.630340         0.877948         0.875545
 O         0.995558         0.752453         1.910611
 H         3.278031         4.093049        -3.225265
 H         4.206196         2.651895        -2.901984
 H         2.968029         2.792603        -4.251472
 H         3.301321         2.088048        -0.728863
 H         2.162477         3.660580        -0.379599
 H         0.200227         2.234705         0.021149
 H         1.246370        -0.246442        -1.453009
 H        -0.263835         0.402217        -1.600745
 H         1.107269         1.100643        -3.775385
 H         2.604708         0.258636         0.708003
