19
Iteration:  3176charge 0 multiplicity 1
 C         3.247074         3.098500        -3.268760
 C         2.118781         2.484426        -2.401772
 C         2.202666         2.595507        -0.839233
 C         1.082259         1.831293        -0.242414
 C         0.594002         0.876403        -1.430846
 C         1.124113         1.465097        -2.723459
 O         0.848108         2.914845        -2.790208
 C         1.645373         0.825466         0.950494
 O         1.022289         0.487638         1.903563
 H         3.244667         4.261171        -3.111845
 H         4.268342         2.536499        -3.276791
 H         2.906415         2.885590        -4.311915
 H         3.236310         2.268402        -0.521217
 H         2.240343         3.581653        -0.552458
 H         0.275245         2.433202         0.036902
 H         0.907927        -0.262401        -1.382066
 H        -0.466083         0.757668        -1.360412
 H         1.108820         1.010379        -3.681890
 H         2.739613         0.572999         0.859757
