19
Iteration:  1449charge 0 multiplicity 1
 C         3.388006         2.467656        -3.002280
 C         2.125041         2.554097        -2.261394
 C         2.150929         2.470490        -0.818655
 C         0.853785         1.632980        -0.263699
 C         0.157922         1.186643        -1.530351
 C         0.880734         1.819131        -2.770813
 O         0.970538         3.190178        -2.792217
 C         1.511001         0.497450         0.690563
 O         1.715590         0.807084         1.835954
 H         3.626698         3.457860        -3.187265
 H         4.120502         2.064282        -2.269068
 H         3.463085         1.810355        -3.942559
 H         3.025846         1.902230        -0.559495
 H         2.162983         3.310874        -0.188250
 H         0.321998         2.195809         0.527516
 H         0.047709         0.055326        -1.544735
 H        -0.895685         1.545685        -1.627246
 H         0.946884         1.193814        -3.631827
 H         1.975938        -0.399288         0.233673
