19
Iteration:  1740charge 0 multiplicity 1
 C         3.339352         2.742172        -3.296217
 C         2.117895         2.449422        -2.360555
 C         2.287619         2.684021        -0.819969
 C         1.070907         1.931598        -0.082218
 C         0.347499         1.155609        -1.261669
 C         1.065634         1.528044        -2.567166
 O         0.891179         3.039265        -2.881052
 C         1.559529         0.768835         0.655360
 O         1.173823         0.342343         1.805501
 H         3.938793         3.625185        -2.838157
 H         4.127023         1.973464        -3.420751
 H         2.891344         2.985192        -4.342428
 H         3.265902         2.215422        -0.682960
 H         2.406687         3.742425        -0.500110
 H         0.357087         2.453037         0.580821
 H         0.459760        -0.035316        -1.251692
 H        -0.730726         1.378003        -1.402625
 H         0.906318         0.895167        -3.368715
 H         2.441430         0.154814         0.259341
