19
Iteration:  3089
 C         3.411257         2.810966        -3.077754
 C         2.184460         2.483084        -2.286378
 C         1.910343         2.788409        -0.797102
 C         0.826761         1.741384        -0.149457
 C         0.253154         0.957333        -1.501620
 C         1.082753         1.522026        -2.698811
 O         0.934329         2.879318        -2.920255
 C         1.721206         0.926353         0.734360
 O         1.474424         0.452553         1.857053
 H         3.686694         3.922917        -3.001711
 H         4.239946         2.227539        -2.612147
 H         3.293752         2.576443        -4.048993
 H         2.908008         2.819445        -0.061143
 H         1.403770         3.675408        -0.739199
 H        -0.032284         2.302752         0.169022
 H         0.749854         0.017152        -1.427575
 H        -0.740530         1.228907        -1.531138
 H         1.100951         0.982147        -3.631340
 H         2.745541         0.783367         0.249139
