19
Iteration:  4001
 C         3.301458         3.150206        -2.912469
 C         1.995772         2.710068        -2.246326
 C         1.660752         3.084835        -0.803863
 C         0.898680         1.799428        -0.304148
 C         0.886643         0.793668        -1.427471
 C         1.395294         1.388671        -2.651915
 O         0.808568         2.632319        -3.106150
 C         1.369052         1.135067         1.189182
 O         1.536242        -0.019133         1.433174
 H         3.390019         4.179363        -3.273895
 H         4.201174         3.191109        -2.302552
 H         3.565516         2.344639        -3.808027
 H         2.426794         3.357419        -0.117774
 H         1.012042         3.893395        -0.752925
 H        -0.104450         2.208119        -0.067586
 H         1.521938        -0.120440        -1.152939
 H        -0.210246         0.374337        -1.541105
 H         1.723047         0.629229        -3.333901
 H         1.442122         1.968073         2.009744
