19
Iteration:  1701
 C         3.385034         2.689753        -3.073185
 C         2.133226         2.427766        -2.369407
 C         2.298645         2.759177        -0.814262
 C         1.105807         1.864825        -0.082210
 C         0.193566         1.297070        -1.328802
 C         0.997945         1.527137        -2.548664
 O         0.801748         2.963073        -3.001541
 C         1.724975         0.756508         0.635863
 O         1.242573         0.308592         1.744090
 H         3.649261         3.666578        -2.898310
 H         4.131729         1.973110        -2.687522
 H         3.264738         2.789501        -4.143921
 H         3.209457         2.228063        -0.436380
 H         2.288648         3.858051        -0.558211
 H         0.568940         2.521935         0.643114
 H        -0.088547         0.335145        -1.083454
 H        -0.757871         1.774945        -1.531358
 H         0.831464         0.853923        -3.426041
 H         2.689181         0.386118         0.233715
