19
Iteration:  1673
 C         3.410954         2.537910        -3.088340
 C         2.143020         2.478595        -2.283029
 C         2.070558         2.900252        -0.810338
 C         1.145615         1.780504        -0.164518
 C         0.187001         1.259668        -1.331434
 C         0.920217         1.591193        -2.579078
 O         0.961000         2.998350        -2.901338
 C         1.700333         0.716300         0.655876
 O         1.327774         0.342776         1.677870
 H         3.763337         3.655756        -3.459287
 H         4.317558         2.078577        -2.630250
 H         3.053881         2.101288        -4.042503
 H         3.089056         2.809551        -0.353943
 H         1.653893         3.905426        -0.640622
 H         0.553041         2.283518         0.590624
 H        -0.096365         0.108785        -1.121305
 H        -0.846591         1.776358        -1.256164
 H         0.849446         0.886034        -3.486995
 H         2.685499         0.368410         0.213271
