19
Iteration:  2641
 C         3.187341         3.079242        -3.317849
 C         2.116041         2.579861        -2.389852
 C         2.513768         2.297949        -0.891110
 C         1.174260         1.648706        -0.380495
 C         0.712446         0.732629        -1.424574
 C         1.040074         1.525521        -2.728998
 O         0.752782         3.055383        -2.596623
 C         1.522579         0.884331         0.871889
 O         0.927953         0.773410         1.953186
 H         3.589343         3.967858        -2.924311
 H         3.988979         2.360906        -3.272744
 H         2.794282         3.200028        -4.355694
 H         3.247911         1.571884        -0.725953
 H         2.437749         3.201489        -0.205194
 H         0.385286         2.396533        -0.216916
 H         1.255740        -0.219087        -1.397554
 H        -0.339596         0.585733        -1.336533
 H         0.829435         1.231667        -3.799871
 H         2.277329         0.086653         0.706702
