19
Iteration:   458charge 0 multiplicity 1
 C         3.202400         2.286448        -3.492322
 C         2.132553         2.285685        -2.460291
 C         2.590081         2.240416        -1.015273
 C         1.418443         1.952411        -0.088127
 C         0.200797         1.525526        -1.110308
 C         0.707688         1.911159        -2.460358
 O         1.149601         3.329854        -2.588446
 C         1.591279         0.733422         0.762232
 O         0.878628         0.321058         1.647793
 H         3.742463         3.241325        -3.542751
 H         3.950943         1.508087        -3.349828
 H         2.699727         2.278466        -4.544263
 H         3.542532         1.745872        -0.909626
 H         2.977916         3.217607        -0.685708
 H         1.139068         2.899985         0.333044
 H         0.070993         0.520097        -1.018047
 H        -0.766991         1.937705        -0.943848
 H         0.151320         1.546332        -3.225801
 H         2.486270         0.085522         0.351346
