19
Iteration:  3103charge 0 multiplicity 1
 C         3.417729         2.848769        -3.103917
 C         2.132920         2.524242        -2.260135
 C         1.982131         2.838288        -0.793069
 C         0.893276         1.784269        -0.246770
 C         0.357422         0.930589        -1.441350
 C         1.111159         1.487752        -2.689841
 O         0.879158         2.897569        -2.928172
 C         1.646714         0.848036         0.741287
 O         1.415288         0.451134         1.875814
 H         3.675181         3.957699        -3.151092
 H         4.259499         2.233092        -2.803987
 H         3.162513         2.501034        -4.082422
 H         3.005744         2.827999        -0.239943
 H         1.683155         3.932258        -0.697478
 H         0.098258         2.268592         0.473944
 H         0.380385        -0.120723        -1.311858
 H        -0.751269         0.952926        -1.627395
 H         1.218273         0.826945        -3.509481
 H         2.634126         0.503161         0.345478
