19
Iteration:   388charge 0 multiplicity 1
 C         3.256029         2.034828        -3.396924
 C         2.123544         2.385951        -2.367474
 C         2.452782         2.510788        -0.848373
 C         1.217139         1.977413        -0.060025
 C         0.130386         1.665116        -1.159440
 C         0.748322         2.040576        -2.520972
 O         1.179094         3.326786        -2.831653
 C         1.464877         0.562884         0.617396
 O         1.297237         0.204667         1.774340
 H         4.211029         2.676546        -3.402344
 H         3.546840         0.949607        -3.443077
 H         2.766497         2.422628        -4.263457
 H         3.343520         2.017521        -0.575699
 H         2.703789         3.513571        -0.605373
 H         0.925642         2.682204         0.750002
 H        -0.069202         0.573356        -1.367922
 H        -0.833223         2.048679        -0.770744
 H         0.141696         1.510740        -3.439843
 H         1.508955        -0.407157        -0.098064
