19
Iteration:  2017charge 0 multiplicity 1
 C         3.338844         2.892763        -3.172849
 C         2.105474         2.611992        -2.421834
 C         2.268733         2.382668        -0.821660
 C         1.056627         1.801041        -0.134385
 C         0.383452         1.065269        -1.435032
 C         1.054004         1.518257        -2.716507
 O         0.827074         3.051541        -2.872906
 C         1.493769         0.705255         0.770105
 O         1.296242         0.587903         1.931661
 H         3.629291         3.934760        -2.935197
 H         4.200861         2.176573        -2.931533
 H         3.191284         2.814391        -4.267083
 H         3.320199         1.884854        -0.515342
 H         2.388847         3.429607        -0.342020
 H         0.510483         2.606775         0.470654
 H         0.690802        -0.065810        -1.281907
 H        -0.694706         1.019022        -1.451195
 H         0.850037         0.895199        -3.629870
 H         2.093896        -0.034957         0.164298
