19
Iteration:  2003
 C         3.309590         2.952013        -3.253322
 C         2.146077         2.495766        -2.343047
 C         2.365027         2.438963        -0.837673
 C         1.033524         1.794303        -0.259334
 C         0.451680         0.979768        -1.423139
 C         0.978438         1.655901        -2.671924
 O         0.846668         3.024002        -2.854843
 C         1.413389         0.699418         0.825470
 O         1.279529         0.588455         1.997399
 H         3.710377         3.931648        -2.983900
 H         4.092590         2.230950        -3.047498
 H         3.040708         3.028011        -4.372786
 H         3.160137         1.673990        -0.788281
 H         2.720082         3.384038        -0.334685
 H         0.285094         2.562411         0.082977
 H         0.865444        -0.024372        -1.457197
 H        -0.618115         0.837374        -1.431996
 H         1.019260         1.154616        -3.570469
 H         1.897575        -0.153231         0.221545
