19
Iteration:  3018
 C         3.411643         2.728198        -2.814597
 C         2.069848         2.593222        -2.255222
 C         1.822691         2.971992        -0.793957
 C         0.895915         1.848344        -0.169646
 C         0.254448         1.034088        -1.449945
 C         1.110059         1.484551        -2.625890
 O         0.916735         2.785867        -3.090894
 C         1.648161         0.713893         0.607261
 O         1.670975         0.468591         1.796705
 H         3.810885         3.749391        -2.679346
 H         4.159560         2.060770        -2.358544
 H         3.514129         2.582840        -3.979696
 H         2.692539         3.184076        -0.302366
 H         1.160125         3.901509        -0.958435
 H         0.281752         2.327438         0.593546
 H         0.287082        -0.072208        -1.371311
 H        -0.702367         1.564879        -1.633132
 H         1.417516         0.769449        -3.415701
 H         2.005003        -0.027905        -0.137683
