19
Iteration:  1445
 C         3.403912         2.453434        -3.011531
 C         2.091120         2.545011        -2.259101
 C         2.152082         2.467455        -0.826266
 C         0.899469         1.636701        -0.274896
 C         0.172049         1.177022        -1.531028
 C         0.882784         1.832368        -2.737404
 O         0.955592         3.172171        -2.785242
 C         1.483599         0.514868         0.712453
 O         1.700790         0.797031         1.820979
 H         3.670444         3.510004        -3.304364
 H         4.144855         2.093908        -2.314622
 H         3.499743         1.956836        -3.934545
 H         3.068852         1.885438        -0.574500
 H         2.205786         3.423163        -0.143178
 H         0.319413         2.183698         0.479012
 H         0.099155         0.108311        -1.571719
 H        -0.842040         1.539690        -1.547198
 H         0.998576         1.296052        -3.738568
 H         1.893653        -0.395810         0.243546
