19
Iteration:  1688charge 0 multiplicity 1
 C         3.376955         2.643065        -3.099630
 C         2.092690         2.480534        -2.319886
 C         2.138676         2.689572        -0.819592
 C         1.084114         1.887415        -0.166696
 C         0.208353         1.328741        -1.278595
 C         0.991294         1.558146        -2.603056
 O         0.887691         2.959597        -2.912789
 C         1.812096         0.708032         0.670032
 O         1.261944         0.352586         1.684788
 H         3.700494         3.624262        -2.953470
 H         4.152245         2.023831        -2.618269
 H         3.405681         2.273672        -4.160071
 H         3.118241         2.644385        -0.423385
 H         1.909154         3.803400        -0.760795
 H         0.419177         2.361373         0.604986
 H        -0.061813         0.328733        -1.192459
 H        -0.619242         1.955143        -1.314656
 H         0.997009         0.872278        -3.391566
 H         2.703274         0.175677         0.291834
