19
Iteration:  4380
 C         3.110414         3.465150        -2.984794
 C         2.100698         2.703923        -2.233743
 C         1.865842         2.817528        -0.770123
 C         0.960404         1.740990        -0.280946
 C         0.702265         0.695920        -1.496220
 C         1.567421         1.338450        -2.657401
 O         0.837547         2.528716        -2.952169
 C         1.590442         1.153559         0.967120
 O         1.181737         0.167659         1.544228
 H         2.828461         4.437770        -2.836772
 H         4.008738         3.165502        -2.521277
 H         3.198101         3.300765        -4.057815
 H         2.901407         2.607773        -0.318724
 H         1.631873         3.907240        -0.555632
 H        -0.030585         2.095503         0.008059
 H         0.955264        -0.360008        -1.167127
 H        -0.321433         0.929903        -1.744850
 H         1.946750         0.568880        -3.344000
 H         2.371267         1.796200         1.554285
