19
Iteration:  3153charge 0 multiplicity 1
 C         3.319430         3.021793        -3.187196
 C         2.089456         2.550409        -2.369185
 C         2.212123         2.776900        -0.828665
 C         1.157355         1.759769        -0.221703
 C         0.513351         0.937851        -1.356594
 C         1.159799         1.493129        -2.627729
 O         0.732104         2.818079        -2.920243
 C         1.621132         0.780514         0.815934
 O         1.093916         0.508171         1.856210
 H         3.357770         4.100456        -2.876847
 H         4.203907         2.396057        -2.785792
 H         3.327246         2.808013        -4.335995
 H         3.262293         2.527112        -0.668166
 H         2.144478         3.735558        -0.396902
 H         0.423151         2.306938         0.236601
 H         0.704254        -0.223860        -1.352751
 H        -0.574227         0.978750        -1.369218
 H         1.226898         0.849957        -3.543315
 H         2.394628         0.064239         0.451133
