19
Iteration:  3490
 C         3.411508         2.928983        -2.816852
 C         2.033315         2.483420        -2.173829
 C         1.796346         2.626632        -0.668216
 C         0.764767         1.566394        -0.324058
 C         0.327572         0.712029        -1.705313
 C         1.194554         1.496676        -2.746467
 O         0.893210         2.912651        -2.928725
 C         1.590304         0.746215         0.656597
 O         1.733964         1.015398         1.843037
 H         3.577084         3.990957        -2.706105
 H         4.328792         2.462566        -2.398184
 H         3.373911         2.837008        -3.898705
 H         2.729192         2.453734        -0.238613
 H         1.528319         3.733202        -0.489320
 H        -0.118127         2.039423         0.205682
 H         0.600164        -0.346118        -1.531725
 H        -0.694925         0.969926        -1.705322
 H         1.521183         0.845130        -3.571062
 H         2.279061         0.061204         0.071598
