19
Iteration:   648
 C         3.167942         2.629388        -3.498925
 C         2.201510         2.420949        -2.413909
 C         2.618659         1.908906        -1.056643
 C         1.325802         1.704966        -0.373974
 C         0.371475         1.074782        -1.411555
 C         0.793030         1.928086        -2.629376
 O         1.035124         3.327378        -2.330351
 C         1.290455         0.716813         0.807851
 O         1.059660         0.877814         2.010934
 H         3.711413         3.602150        -3.251594
 H         4.040481         1.787964        -3.631213
 H         2.626486         2.723991        -4.418073
 H         3.213932         0.919740        -1.148333
 H         3.387272         2.631760        -0.540245
 H         0.901191         2.694849        -0.066026
 H         0.910056         0.068128        -1.524255
 H        -0.699406         0.827151        -1.095271
 H         0.300878         1.771730        -3.673535
 H         1.431668        -0.276902         0.437233
