19
Iteration:   326charge 0 multiplicity 1
 C         3.289897         2.011400        -3.176545
 C         2.124123         2.307024        -2.327306
 C         2.351852         2.244417        -0.795794
 C         1.008041         1.872991        -0.071695
 C        -0.025998         1.805800        -1.299156
 C         0.748391         1.958490        -2.526702
 O         1.195236         3.376910        -2.713115
 C         1.400615         0.565872         0.472982
 O         1.686166         0.431576         1.640708
 H         3.789411         3.021428        -3.211671
 H         4.008855         1.295345        -2.863403
 H         2.890884         1.854935        -4.236163
 H         3.089231         1.324366        -0.610337
 H         2.668914         3.269477        -0.415394
 H         0.633109         2.635266         0.595551
 H        -0.768379         0.986608        -1.443068
 H        -0.604147         2.714244        -1.091272
 H         0.316782         1.467581        -3.385216
 H         1.703314        -0.074814        -0.454144
