19
Iteration:   492charge 0 multiplicity 1
 C         3.084111         2.405740        -3.676911
 C         2.211128         2.442900        -2.464491
 C         2.762344         2.120856        -0.959289
 C         1.461221         1.880534        -0.084499
 C         0.319724         1.414903        -1.156321
 C         0.845100         1.902505        -2.465709
 O         1.038701         3.361978        -2.582588
 C         1.538423         0.716058         0.888407
 O         0.715480         0.408017         1.715298
 H         3.535204         3.376433        -3.790699
 H         3.805200         1.532400        -3.677723
 H         2.380827         2.086490        -4.488220
 H         3.269546         1.222741        -1.141109
 H         3.109022         3.040171        -0.475861
 H         1.200420         2.876964         0.283843
 H         0.380743         0.400236        -1.354748
 H        -0.684646         1.640246        -0.871117
 H         0.420821         1.464232        -3.275291
 H         2.413247         0.065337         0.738760
