19
Iteration:   454
 C         3.201512         2.256481        -3.486130
 C         2.136846         2.300481        -2.416595
 C         2.614469         2.233515        -1.003865
 C         1.398781         1.933902        -0.138019
 C         0.165847         1.549857        -1.120519
 C         0.694284         1.901729        -2.421897
 O         1.135247         3.341999        -2.593185
 C         1.610650         0.726578         0.743951
 O         0.905286         0.332234         1.636790
 H         3.799246         3.233126        -3.471519
 H         3.945228         1.479825        -3.317865
 H         2.828920         2.283926        -4.529142
 H         3.600164         1.816334        -0.809547
 H         2.940192         3.250454        -0.785174
 H         1.166783         2.842485         0.473586
 H         0.070937         0.391696        -1.007317
 H        -0.856174         2.033958        -1.059203
 H         0.115359         1.498479        -3.412050
 H         2.436769         0.168055         0.377933
