19
Iteration:   126
 C         3.257039         2.488217        -3.494056
 C         2.229186         2.390150        -2.360983
 C         2.625221         2.308229        -0.897807
 C         1.215665         2.036720        -0.209834
 C         0.301345         1.300284        -1.297063
 C         0.856223         1.837465        -2.628276
 O         1.060072         3.220416        -2.507497
 C         1.261961         1.137373         1.101619
 O         1.077591        -0.037545         1.404193
 H         3.614175         3.538631        -3.446114
 H         4.096321         1.763421        -3.441846
 H         2.781121         2.271987        -4.418317
 H         3.240188         1.330741        -0.648757
 H         3.244711         3.032215        -0.326350
 H         0.834507         2.949611         0.285143
 H         0.593038         0.140199        -1.241316
 H        -0.801420         1.396933        -1.101693
 H         0.427468         1.439956        -3.615622
 H         1.378167         1.833490         2.071192
