19
Iteration:  4780charge 0 multiplicity 1
 C         3.408953         2.849598        -2.412562
 C         1.957855         2.620649        -2.057743
 C         1.354667         3.038947        -0.783369
 C         0.619546         1.844110        -0.275216
 C         0.493749         0.860773        -1.393894
 C         1.372052         1.376857        -2.514513
 O         0.917882         2.523451        -3.146529
 C         1.585411         1.354719         0.816308
 O         2.032465         0.215971         0.947326
 H         3.633107         3.914035        -2.619624
 H         3.978509         2.553621        -1.451901
 H         3.702185         2.332931        -3.304414
 H         2.157340         3.254358        -0.170242
 H         0.713065         3.894050        -0.913057
 H        -0.275947         2.218384         0.180898
 H         0.896150        -0.069708        -1.164164
 H        -0.594784         0.771577        -1.571778
 H         1.849472         0.476120        -2.970222
 H         1.821925         2.061799         1.609302
