19
Iteration:   212charge 0 multiplicity 1
 C         3.335558         2.243864        -3.176739
 C         2.191770         2.329132        -2.303754
 C         2.439587         2.114897        -0.823268
 C         0.943923         1.994010        -0.204704
 C        -0.001123         1.387802        -1.323356
 C         0.701765         1.927965        -2.567703
 O         1.237767         3.311888        -2.550714
 C         0.947405         1.040678         0.962660
 O         1.938331         0.306546         1.151460
 H         4.162461         2.734191        -2.609085
 H         3.619416         1.131570        -3.194738
 H         3.289091         2.566779        -4.237331
 H         2.903186         1.114764        -0.613048
 H         3.086113         2.837361        -0.315130
 H         0.506748         2.978391         0.042157
 H         0.059899         0.337951        -1.336471
 H        -1.024064         1.734013        -1.225933
 H         0.284637         1.714677        -3.630422
 H         0.190727         1.116121         1.768937
