19
Iteration:   327
 C         3.289779         2.014661        -3.179118
 C         2.128767         2.311194        -2.331395
 C         2.350262         2.242250        -0.785974
 C         1.012771         1.880435        -0.076096
 C        -0.023688         1.811762        -1.302415
 C         0.740283         1.948400        -2.533213
 O         1.189473         3.375542        -2.705980
 C         1.401371         0.557144         0.467365
 O         1.680902         0.433873         1.644044
 H         3.775486         2.980331        -3.198952
 H         3.978491         1.288756        -2.880335
 H         2.907339         1.824937        -4.242702
 H         3.119645         1.349991        -0.621680
 H         2.682501         3.271508        -0.406948
 H         0.668057         2.631776         0.626581
 H        -0.782851         0.960321        -1.445148
 H        -0.591248         2.734235        -1.098482
 H         0.369256         1.490989        -3.365215
 H         1.745053        -0.051384        -0.450264
