19
Iteration:   292charge 0 multiplicity 1
 C         3.349208         2.019623        -3.244617
 C         2.124153         2.304920        -2.319022
 C         2.397083         2.349267        -0.806311
 C         1.038943         1.879206        -0.046471
 C        -0.031331         1.788366        -1.346767
 C         0.663738         2.026091        -2.618346
 O         1.219708         3.379024        -2.725115
 C         1.129060         0.516613         0.657865
 O         1.862498         0.368015         1.616000
 H         4.023823         2.974165        -3.193506
 H         3.999073         1.181106        -2.886235
 H         3.108844         1.972417        -4.307909
 H         3.288995         1.775429        -0.238583
 H         2.651584         3.397391        -0.486620
 H         0.623639         2.683755         0.573820
 H        -0.344306         0.701821        -1.450388
 H        -1.012158         2.285610        -1.235151
 H         0.181752         1.576723        -3.585621
 H         0.713136        -0.485792         0.271234
