19
Iteration:  2881charge 0 multiplicity 1
 C         3.469606         2.649104        -2.783470
 C         2.092529         2.576930        -2.158102
 C         1.719289         2.897451        -0.707038
 C         0.804242         1.632117        -0.242569
 C         0.166029         1.135610        -1.546218
 C         1.102478         1.479285        -2.621169
 O         0.909960         2.824244        -3.059896
 C         1.784820         0.724652         0.541978
 O         1.740751         0.693473         1.749018
 H         4.034448         3.583805        -2.588680
 H         3.953649         1.819386        -2.208546
 H         3.425387         2.568497        -3.932037
 H         2.650688         2.821302        -0.053468
 H         1.261356         3.823618        -0.693438
 H         0.116846         1.968592         0.631654
 H        -0.053898         0.031536        -1.592985
 H        -0.792262         1.666259        -1.763036
 H         1.321214         0.800468        -3.583797
 H         2.587817         0.104240        -0.019543
