19
Iteration:  4822charge 0 multiplicity 1
 C         3.409206         3.002014        -2.445738
 C         2.093786         2.485183        -2.089618
 C         1.322940         3.029354        -0.809460
 C         0.635018         1.881149        -0.162038
 C         0.282124         0.983333        -1.355921
 C         1.321716         1.292636        -2.410036
 O         1.068842         2.414284        -3.172527
 C         1.440763         1.237938         0.948567
 O         2.176306         0.291653         0.760193
 H         3.384944         4.119074        -2.383974
 H         4.295326         2.570052        -1.859218
 H         3.668829         2.782030        -3.530632
 H         1.987691         3.501626         0.026186
 H         0.607997         3.697083        -1.185218
 H        -0.291664         2.170770         0.382382
 H         0.334916         0.035958        -1.023640
 H        -0.661238         1.123076        -1.858012
 H         1.852965         0.603333        -3.081023
 H         1.437880         1.741383         1.985002
