19
Iteration:  1686charge 0 multiplicity 1
 C         3.385562         2.634497        -3.094289
 C         2.093429         2.477410        -2.308631
 C         2.115464         2.710529        -0.832030
 C         1.098053         1.868419        -0.170982
 C         0.214219         1.335437        -1.276270
 C         0.968511         1.555077        -2.609955
 O         0.905178         2.961908        -2.899385
 C         1.809686         0.720882         0.646112
 O         1.259679         0.347718         1.699167
 H         3.734917         3.723751        -3.047805
 H         4.157814         1.978888        -2.641130
 H         3.370311         2.216295        -4.152495
 H         3.103823         2.662817        -0.453039
 H         1.840551         3.793676        -0.667617
 H         0.449502         2.367597         0.572928
 H        -0.061902         0.247813        -1.198103
 H        -0.652138         1.971290        -1.288785
 H         1.053409         0.860008        -3.404019
 H         2.715730         0.200805         0.262252
