19
Iteration:   400charge 0 multiplicity 1
 C         3.205543         2.060878        -3.421753
 C         2.201522         2.399373        -2.337591
 C         2.537372         2.524965        -0.873296
 C         1.252352         1.916480        -0.095137
 C         0.102165         1.637729        -1.182496
 C         0.686511         2.025475        -2.482241
 O         1.141065         3.364615        -2.826999
 C         1.462698         0.572180         0.655949
 O         1.235857         0.198569         1.795483
 H         4.175560         2.630483        -3.143136
 H         3.451450         0.982369        -3.443494
 H         2.866529         2.208336        -4.473379
 H         3.355900         1.856500        -0.784254
 H         2.770052         3.503960        -0.514187
 H         0.855593         2.664030         0.605279
 H        -0.101038         0.580770        -1.136007
 H        -0.816624         2.219262        -1.120082
 H         0.466637         1.363528        -3.455599
 H         2.143042        -0.042919        -0.152159
