19
Iteration:   319charge 0 multiplicity 1
 C         3.307168         2.044299        -3.180034
 C         2.117564         2.272017        -2.268720
 C         2.353083         2.258212        -0.855507
 C         0.947946         1.842406        -0.098291
 C        -0.036678         1.784486        -1.245181
 C         0.739853         2.024590        -2.534409
 O         1.245849         3.370983        -2.766029
 C         1.395147         0.621847         0.501212
 O         1.730727         0.395795         1.633378
 H         3.823422         2.954416        -3.285548
 H         4.052157         1.342325        -2.800487
 H         2.907231         1.929427        -4.192049
 H         2.972841         1.451428        -0.560790
 H         2.748475         3.184184        -0.422261
 H         0.527342         2.610992         0.570099
 H        -0.744038         0.859635        -1.307120
 H        -0.783923         2.610225        -1.147561
 H         0.260121         1.525749        -3.354028
 H         1.321567        -0.287396        -0.174901
