19
Iteration:  3544charge 0 multiplicity 1
 C         3.384085         2.824284        -2.669978
 C         1.992331         2.670112        -2.234714
 C         1.764960         2.855339        -0.700180
 C         0.792958         1.521987        -0.294040
 C         0.413848         0.821319        -1.607504
 C         1.186453         1.503789        -2.741356
 O         0.872923         2.881526        -3.111457
 C         1.562099         0.630174         0.684031
 O         1.846675         0.934843         1.808211
 H         3.659818         3.904777        -2.716652
 H         4.035213         2.215407        -1.935011
 H         3.572856         2.417521        -3.807010
 H         2.661381         2.847510        -0.189004
 H         1.138330         3.826488        -0.784059
 H        -0.077520         1.898888         0.444936
 H         0.706710        -0.325191        -1.500644
 H        -0.691093         0.649490        -1.715638
 H         1.346618         0.774756        -3.643090
 H         1.563038        -0.567344         0.483028
