19
Iteration:   351
 C         3.296773         2.035317        -3.252742
 C         2.208824         2.340947        -2.316470
 C         2.462933         2.439130        -0.833393
 C         1.114116         1.866074        -0.180604
 C        -0.075156         1.811437        -1.238550
 C         0.712491         1.956507        -2.560718
 O         1.148566         3.300528        -2.652560
 C         1.490846         0.523715         0.479857
 O         1.514796         0.378913         1.708945
 H         4.058206         2.736451        -3.268928
 H         3.730640         1.049860        -3.078074
 H         2.769962         1.949774        -4.225679
 H         3.221716         1.632552        -0.523829
 H         2.660346         3.515429        -0.555879
 H         0.676863         2.544419         0.561122
 H        -0.672037         0.782159        -1.195447
 H        -0.796796         2.641207        -0.983382
 H         0.364489         1.540681        -3.435282
 H         1.435066        -0.317939        -0.328214
