19
Iteration:  1393
 C         3.302599         2.781681        -3.315973
 C         2.196731         2.421629        -2.328355
 C         2.347627         2.331855        -0.798986
 C         0.989032         1.753315        -0.304634
 C         0.328667         1.077178        -1.487009
 C         0.975400         1.662911        -2.729038
 O         0.973130         3.180036        -2.671379
 C         1.220000         0.665837         0.800409
 O         1.535658         0.705021         1.954010
 H         3.795856         3.696083        -3.179107
 H         4.179380         2.044778        -3.392303
 H         2.755112         2.914092        -4.307358
 H         3.138446         1.708934        -0.443135
 H         2.477721         3.290411        -0.225933
 H         0.385753         2.530705         0.241989
 H         0.516582        -0.056100        -1.355047
 H        -0.749773         1.288636        -1.607028
 H         0.765380         1.107369        -3.677917
 H         0.859370        -0.392856         0.430638
