19
Iteration:  1928charge 0 multiplicity 1
 C         3.144417         3.003292        -3.257059
 C         2.096662         2.560043        -2.375483
 C         2.584727         2.075183        -0.975981
 C         1.248103         1.476716        -0.428175
 C         0.658672         0.773583        -1.608232
 C         0.898737         1.769925        -2.770648
 O         0.818774         3.114143        -2.370936
 C         1.457291         0.719870         0.889667
 O         0.963036         1.065537         1.971680
 H         3.591115         3.904391        -2.912564
 H         3.844031         2.135192        -3.248255
 H         2.728845         3.371608        -4.227594
 H         3.292721         1.124050        -1.027220
 H         3.045144         2.901964        -0.296449
 H         0.393846         2.192724        -0.148916
 H         1.314957        -0.083607        -2.040844
 H        -0.204373         0.223412        -1.498371
 H         0.727346         1.552236        -3.735106
 H         2.248277        -0.103566         0.888120
