19
Iteration:  2483
 C         3.218516         2.962501        -3.350827
 C         2.089311         2.585721        -2.419730
 C         2.368361         2.448993        -0.928134
 C         1.202020         1.707254        -0.236600
 C         0.564424         0.929344        -1.397156
 C         1.020789         1.495398        -2.704848
 O         0.830239         3.101318        -2.728342
 C         1.663451         0.825626         0.980649
 O         0.906726         0.514812         1.945472
 H         4.078831         3.727658        -3.002945
 H         3.778791         1.971215        -3.515849
 H         3.080217         3.347804        -4.365660
 H         3.284256         1.889777        -0.783866
 H         2.385369         3.432191        -0.508173
 H         0.349124         2.436085         0.022204
 H         1.206859         0.048343        -1.545455
 H        -0.576530         0.728094        -1.302450
 H         0.884741         1.129233        -3.750546
 H         2.766179         0.587115         1.002959
