19
Iteration:   285
 C         3.341564         2.033462        -3.230034
 C         2.154933         2.279041        -2.314692
 C         2.395073         2.364468        -0.813580
 C         0.972065         1.837441        -0.112628
 C         0.025176         1.738136        -1.320687
 C         0.704869         2.042729        -2.611519
 O         1.189414         3.403375        -2.712270
 C         1.122124         0.556888         0.676009
 O         1.877114         0.355982         1.611907
 H         3.980430         2.843483        -3.136455
 H         3.873962         1.145084        -3.005769
 H         3.044095         1.882328        -4.300683
 H         3.292611         1.853758        -0.506545
 H         2.592079         3.439709        -0.594556
 H         0.640931         2.557854         0.646117
 H        -0.363522         0.661789        -1.375702
 H        -0.827617         2.446129        -1.292653
 H         0.332907         1.660114        -3.476142
 H         0.381699        -0.242779         0.405772
