19
Iteration:  2281
 C         3.355911         2.590041        -2.929027
 C         2.086867         2.575003        -2.277467
 C         2.002073         2.817094        -0.773656
 C         0.903619         1.798363        -0.181310
 C         0.175433         1.272067        -1.427888
 C         1.046873         1.592832        -2.622397
 O         0.932093         2.954508        -3.077778
 C         1.773734         0.738574         0.689655
 O         1.553188         0.333087         1.803325
 H         4.051559         3.471745        -2.925545
 H         3.946174         1.666928        -2.514116
 H         3.209915         2.358108        -4.043851
 H         2.901081         2.866923        -0.204201
 H         1.696386         3.864456        -0.685133
 H         0.204076         2.401416         0.365123
 H        -0.012849         0.170829        -1.410938
 H        -0.827352         1.549244        -1.581528
 H         0.937475         0.815449        -3.402116
 H         2.575757         0.233740         0.085775
