19
Iteration:  3600
 C         3.367540         3.069246        -2.764350
 C         2.139203         2.533633        -2.120463
 C         1.742149         2.763709        -0.709698
 C         0.770325         1.582053        -0.341839
 C         0.254015         0.919884        -1.551081
 C         1.265364         1.348852        -2.665717
 O         0.967417         2.697921        -2.976300
 C         1.342268         0.627103         0.642389
 O         1.958580         0.969694         1.604074
 H         3.376827         4.090260        -2.281735
 H         4.409824         2.580801        -2.458000
 H         3.217897         3.120409        -3.928732
 H         2.588208         2.820176        -0.063199
 H         1.330295         3.851275        -0.550373
 H        -0.026191         2.116601         0.384302
 H         0.183721        -0.228521        -1.306082
 H        -0.784675         1.215735        -1.803432
 H         1.714136         0.626415        -3.457738
 H         1.201386        -0.397865         0.565450
