19
Iteration:  4973
 C         3.470498         2.837341        -2.255846
 C         1.909408         2.625676        -2.052201
 C         1.183437         3.168835        -0.851818
 C         0.659128         1.885957        -0.164753
 C         0.274866         0.952575        -1.412922
 C         1.312991         1.293287        -2.465099
 O         1.043803         2.422378        -3.278267
 C         1.657658         1.294033         0.830613
 O         2.217692         0.198544         0.832944
 H         3.662471         3.903139        -2.039600
 H         4.048530         2.376799        -1.496596
 H         3.928911         2.603257        -3.210638
 H         1.871966         3.727759        -0.171473
 H         0.358932         3.904700        -1.173995
 H        -0.217887         2.093484         0.479179
 H         0.466048        -0.059799        -0.933665
 H        -0.821684         1.070966        -1.635397
 H         1.751538         0.499358        -3.038225
 H         1.757023         1.833290         1.785302
