19
Iteration:   851
 C         3.474792         2.170470        -2.949750
 C         2.098326         2.505392        -2.225644
 C         2.232037         2.590431        -0.742627
 C         0.865994         1.895349        -0.082002
 C        -0.025488         1.605746        -1.305515
 C         0.852627         1.698497        -2.541606
 O         1.044218         3.108641        -2.942713
 C         1.480599         0.719151         0.436081
 O         1.740695         0.413656         1.568269
 H         3.984843         2.993706        -3.472723
 H         4.065074         1.574967        -2.392713
 H         3.191271         1.783222        -4.046195
 H         3.056726         1.934328        -0.321349
 H         2.414500         3.616808        -0.366575
 H         0.218754         2.317615         0.753239
 H        -0.304401         0.596469        -1.237104
 H        -0.856164         2.296973        -1.295404
 H         0.864079         0.928040        -3.285643
 H         1.648176         0.001760        -0.387852
