19
Iteration:  4557
 C         3.074429         3.580923        -3.087141
 C         2.092998         2.616945        -2.346442
 C         2.186580         2.568325        -0.762016
 C         0.925194         1.661045        -0.411281
 C         1.053910         0.572667        -1.486893
 C         1.499436         1.384311        -2.749626
 O         0.746558         2.610329        -2.685253
 C         1.023423         1.302944         1.056840
 O         1.307184         0.262466         1.586049
 H         3.096088         4.563882        -2.474942
 H         4.136895         3.273245        -3.174223
 H         2.429766         3.666289        -4.167421
 H         3.055193         2.002287        -0.402976
 H         2.239800         3.583539        -0.295070
 H         0.169988         2.407219        -0.629584
 H         1.754688        -0.254617        -1.119014
 H         0.143396        -0.009590        -1.684251
 H         1.694093         0.989713        -3.707696
 H         0.717684         2.148351         1.708282
