19
Iteration:  4631
 C         3.318238         3.250870        -2.986612
 C         2.031479         2.718840        -2.235076
 C         1.812557         2.987833        -0.788092
 C         0.872343         1.774971        -0.281008
 C         0.916963         0.672457        -1.418994
 C         1.441905         1.398949        -2.614350
 O         0.726266         2.617153        -2.987324
 C         1.227251         1.202513         1.109395
 O         1.497745         0.053308         1.373022
 H         3.082276         4.336905        -3.131784
 H         4.222896         2.974894        -2.417168
 H         3.491900         2.633041        -3.847478
 H         2.858827         2.844788        -0.346868
 H         1.281632         3.906195        -0.502733
 H        -0.190788         2.162119        -0.174093
 H         1.635799        -0.065849        -1.129056
 H         0.021012         0.101924        -1.511635
 H         1.797306         0.934028        -3.511744
 H         1.337056         1.949492         1.988148
