19
Iteration:  1695charge 0 multiplicity 1
 C         3.357590         2.639265        -3.095737
 C         2.112743         2.463383        -2.356887
 C         2.218795         2.702521        -0.803145
 C         1.068526         1.894586        -0.120388
 C         0.211572         1.320507        -1.312651
 C         1.027941         1.556093        -2.565665
 O         0.834169         2.962312        -2.961259
 C         1.786037         0.708796         0.686369
 O         1.258681         0.345792         1.686092
 H         3.724456         3.752119        -2.806119
 H         4.133208         2.074995        -2.545758
 H         3.380479         2.571276        -4.213171
 H         3.210637         2.467058        -0.332740
 H         2.117348         3.781168        -0.843833
 H         0.478878         2.398038         0.634326
 H        -0.177783         0.212352        -1.082112
 H        -0.755089         1.931202        -1.445078
 H         0.842645         0.869980        -3.419402
 H         2.729106         0.192685         0.297007
