19
Iteration:   389
 C         3.257612         2.030737        -3.400171
 C         2.120716         2.390937        -2.355648
 C         2.462864         2.517975        -0.852106
 C         1.222216         1.976790        -0.065422
 C         0.126686         1.655579        -1.165904
 C         0.743665         2.047579        -2.515796
 O         1.176613         3.322820        -2.834549
 C         1.463935         0.565435         0.622335
 O         1.291989         0.199577         1.777114
 H         4.225902         2.676477        -3.404704
 H         3.550432         0.963998        -3.448520
 H         2.752448         2.439355        -4.292280
 H         3.344133         1.969318        -0.602168
 H         2.698694         3.528461        -0.591291
 H         0.939378         2.672609         0.738550
 H        -0.078602         0.605718        -1.346419
 H        -0.829128         2.051749        -0.815282
 H         0.156971         1.521879        -3.418505
 H         1.553010        -0.387204        -0.070920
