19
Iteration:  1396
 C         3.330466         2.761322        -3.306571
 C         2.204305         2.411098        -2.320572
 C         2.306214         2.375345        -0.804988
 C         1.007037         1.760522        -0.292051
 C         0.331114         1.097001        -1.498056
 C         0.962112         1.641691        -2.731213
 O         0.974348         3.189640        -2.656437
 C         1.206973         0.655004         0.753556
 O         1.553820         0.699348         1.970967
 H         3.758944         3.830591        -3.177856
 H         4.167101         1.990118        -3.332847
 H         2.755202         2.815033        -4.319744
 H         3.114563         1.698616        -0.475474
 H         2.486531         3.266978        -0.295337
 H         0.345816         2.512511         0.203249
 H         0.522059        -0.004702        -1.489216
 H        -0.795269         1.226888        -1.562255
 H         0.680674         0.992720        -3.532860
 H         0.921612        -0.349398         0.393480
