19
Iteration:  4214
 C         3.077495         3.526016        -2.999863
 C         2.058315         2.608505        -2.244312
 C         2.196714         2.606136        -0.762654
 C         0.961102         1.730754        -0.413239
 C         0.771201         0.603455        -1.521455
 C         1.427614         1.305861        -2.750883
 O         0.822235         2.603136        -2.860687
 C         1.021545         1.273657         1.106073
 O         1.522101         0.286121         1.560582
 H         2.741705         4.553871        -2.798766
 H         4.048473         3.303873        -2.462394
 H         3.156944         3.370315        -3.997389
 H         3.142321         2.054727        -0.444464
 H         2.203847         3.608521        -0.233571
 H         0.269586         2.514827        -0.439207
 H         1.237717        -0.433726        -1.219640
 H        -0.288391         0.640434        -1.731372
 H         1.896347         0.877797        -3.642497
 H         0.491458         2.008921         1.825504
