19
Iteration:   589charge 0 multiplicity 1
 C         3.113571         2.753670        -3.580343
 C         2.225073         2.433581        -2.406003
 C         2.749772         1.729446        -1.106498
 C         1.422256         1.498184        -0.352122
 C         0.360914         1.158300        -1.458632
 C         0.851136         1.904658        -2.629895
 O         0.949976         3.303757        -2.296051
 C         1.492494         0.777673         0.965301
 O         0.788705         0.949134         1.959043
 H         3.998717         3.277902        -3.168566
 H         3.472768         1.871608        -4.192782
 H         2.551439         3.581164        -4.212164
 H         3.035191         0.649073        -1.386304
 H         3.596300         2.257365        -0.565822
 H         0.988880         2.464454        -0.063665
 H         0.304404        -0.026214        -1.661034
 H        -0.608586         1.481618        -1.085893
 H         0.388892         1.714272        -3.525994
 H         2.429862         0.251939         1.130742
