19
Iteration:  3671
 C         3.469872         2.928425        -2.625066
 C         2.077259         2.580197        -2.224757
 C         1.636125         2.762052        -0.720780
 C         0.682539         1.647829        -0.319810
 C         0.520744         0.707202        -1.597597
 C         1.208344         1.486935        -2.765533
 O         0.843717         2.820746        -2.995887
 C         1.092346         0.822164         0.961893
 O         2.205195         0.825921         1.411654
 H         3.583336         4.017918        -2.609102
 H         4.116496         2.559014        -1.876923
 H         3.660752         2.444235        -3.583388
 H         2.614916         2.912043        -0.053461
 H         1.318837         3.785962        -0.554984
 H        -0.290443         1.985195        -0.200578
 H         1.142464        -0.242365        -1.462767
 H        -0.556330         0.351389        -1.748288
 H         1.622165         0.980435        -3.620364
 H         0.355518         0.257690         1.564636
