19
Iteration:  3189
 C         3.162060         3.047993        -3.353843
 C         2.216951         2.512371        -2.324923
 C         2.324159         2.606947        -0.823865
 C         1.105690         1.679462        -0.280813
 C         0.596417         0.797684        -1.476254
 C         1.084597         1.537093        -2.714775
 O         0.826112         2.925673        -2.754872
 C         1.596285         0.983590         0.961075
 O         0.982273         0.484971         1.897960
 H         3.310112         4.182921        -3.073377
 H         4.233230         2.755177        -3.183939
 H         2.844422         3.064786        -4.323623
 H         3.231815         1.953511        -0.495235
 H         2.312118         3.596381        -0.439337
 H         0.242680         2.330290         0.111897
 H         1.155447        -0.185442        -1.387721
 H        -0.491950         0.600471        -1.477924
 H         1.068388         1.002458        -3.622337
 H         2.683028         0.752717         0.801776
