19
Iteration:  3382
 C         3.224880         3.031872        -3.272573
 C         2.081418         2.626609        -2.306455
 C         2.236385         2.559220        -0.773526
 C         1.072791         1.603731        -0.298068
 C         0.731962         0.718379        -1.551859
 C         1.196538         1.460252        -2.771010
 O         0.719525         2.941426        -2.674261
 C         1.629679         0.871970         0.875367
 O         1.001700         0.753907         1.913518
 H         3.269646         4.117677        -3.229143
 H         4.253563         2.617675        -2.935949
 H         2.988316         2.779295        -4.252719
 H         3.342474         2.131887        -0.734700
 H         2.155140         3.667125        -0.360981
 H         0.221015         2.196111         0.054815
 H         1.231840        -0.250504        -1.425719
 H        -0.278960         0.392253        -1.586982
 H         1.144298         1.119895        -3.796990
 H         2.602882         0.255569         0.661607
