19
Iteration:  4683
 C         3.273785         3.365022        -2.865827
 C         2.078425         2.603872        -2.199602
 C         1.730956         3.023955        -0.749625
 C         0.745281         1.882252        -0.272625
 C         0.572261         0.824450        -1.374823
 C         1.499428         1.232761        -2.453275
 O         0.892796         2.423776        -3.030967
 C         1.409504         1.237964         0.954906
 O         1.664472         0.043247         1.164299
 H         3.100458         4.428730        -2.723684
 H         4.125622         2.998482        -2.235621
 H         3.410538         3.166625        -3.852880
 H         2.630427         3.064911        -0.089239
 H         1.041809         3.953494        -0.706839
 H        -0.234000         2.245326         0.147230
 H         0.663341        -0.226984        -0.826686
 H        -0.467921         0.912898        -1.881223
 H         1.987028         0.525977        -3.174740
 H         1.697749         1.984990         1.740081
