19
Iteration:  3685
 C         3.428236         2.924316        -2.633649
 C         2.014434         2.543173        -2.124110
 C         1.689205         2.822255        -0.752678
 C         0.603171         1.697547        -0.319040
 C         0.658607         0.658450        -1.592759
 C         1.268736         1.443890        -2.702524
 O         0.821165         2.864676        -2.953826
 C         1.044057         0.901748         0.928284
 O         2.225599         0.764922         1.348476
 H         3.682134         3.931192        -2.774753
 H         4.135709         2.413424        -2.044295
 H         3.690990         2.485184        -3.676536
 H         2.510084         2.497571        -0.116418
 H         1.150927         3.779320        -0.730726
 H        -0.336429         2.135589        -0.017228
 H         1.279149        -0.188679        -1.373090
 H        -0.350107         0.240078        -1.874372
 H         1.482799         0.846374        -3.683328
 H         0.127566         0.508222         1.346635
