19
Iteration:  4466charge 0 multiplicity 1
 C         3.091457         3.245392        -3.111897
 C         2.003944         2.750111        -2.243871
 C         1.975899         2.910261        -0.758210
 C         1.111140         1.706858        -0.305458
 C         1.191070         0.603091        -1.455167
 C         1.486609         1.418621        -2.624532
 O         0.698151         2.661105        -2.815459
 C         1.335126         1.238769         1.107278
 O         1.036394         0.102587         1.419974
 H         2.967846         4.456887        -3.155928
 H         4.210100         3.053455        -2.727694
 H         2.966910         2.797492        -4.152538
 H         3.011231         2.910188        -0.425733
 H         1.439608         3.752200        -0.443134
 H         0.044541         1.974941        -0.294909
 H         1.971877        -0.122048        -1.406469
 H         0.288990         0.013381        -1.469844
 H         1.723524         1.027615        -3.674324
 H         1.836866         2.022323         1.803376
