19
Iteration:  2373charge 0 multiplicity 1
 C         3.361996         2.691513        -3.139828
 C         2.101463         2.567319        -2.272977
 C         2.123448         2.676914        -0.823008
 C         0.967443         1.834885        -0.199353
 C         0.210894         1.150405        -1.383446
 C         1.130918         1.561542        -2.598465
 O         0.908735         3.019758        -3.029272
 C         1.694679         0.758560         0.741940
 O         1.370236         0.326792         1.877269
 H         3.278179         3.854612        -3.244351
 H         4.279189         2.293382        -2.666015
 H         3.210555         2.343192        -4.203715
 H         3.115565         2.519134        -0.360818
 H         1.983322         3.689495        -0.478124
 H         0.255799         2.511724         0.403527
 H        -0.109910         0.109216        -1.262841
 H        -0.908044         1.609100        -1.376562
 H         1.282521         0.973420        -3.520157
 H         2.634581         0.261792         0.272568
