19
Iteration:  4581charge 0 multiplicity 1
 C         3.105705         3.435621        -3.037985
 C         2.083727         2.632655        -2.251492
 C         2.085051         2.691062        -0.753023
 C         0.947080         1.577027        -0.392083
 C         1.097851         0.540125        -1.499052
 C         1.355505         1.446734        -2.692673
 O         0.769596         2.729741        -2.830387
 C         1.077679         1.301417         1.058382
 O         1.364312         0.231236         1.571042
 H         3.106587         4.491760        -2.787968
 H         4.080407         3.044487        -2.792597
 H         2.857600         3.165951        -4.185883
 H         2.995291         2.386328        -0.188877
 H         1.794108         3.817348        -0.510258
 H        -0.036069         2.055388        -0.594568
 H         2.029800        -0.190095        -1.514806
 H         0.217903        -0.198945        -1.482992
 H         1.560691         1.001827        -3.686331
 H         0.790549         2.141509         1.734132
