19
Iteration:  4709
 C         3.301731         3.214744        -2.707655
 C         1.992733         2.613969        -2.188129
 C         1.585782         3.028921        -0.778744
 C         0.742307         1.875159        -0.221088
 C         0.472770         0.846308        -1.429044
 C         1.443755         1.288312        -2.469735
 O         0.969192         2.467030        -3.203168
 C         1.516754         1.243934         1.055723
 O         1.782157         0.063048         1.137867
 H         3.258610         4.343947        -2.729601
 H         4.065685         2.872911        -2.009506
 H         3.331734         2.978509        -3.864768
 H         2.570536         3.081558        -0.114838
 H         0.963773         3.958813        -0.685128
 H        -0.290088         2.057544         0.261308
 H         0.584668        -0.163242        -0.999608
 H        -0.499881         0.995187        -1.835608
 H         2.146013         0.598232        -2.909055
 H         1.767692         2.032284         1.788414
