19
Iteration:  4699
 C         3.258188         3.266411        -2.710611
 C         2.012681         2.703635        -2.206619
 C         1.609468         3.001273        -0.819724
 C         0.774872         1.805130        -0.232611
 C         0.465227         0.864313        -1.368002
 C         1.524495         1.268734        -2.432299
 O         0.948546         2.430801        -3.128001
 C         1.441685         1.231564         0.946145
 O         1.750239         0.074799         1.163830
 H         3.193023         4.391634        -2.636144
 H         4.223802         2.941078        -2.346849
 H         3.460636         2.840053        -3.820808
 H         2.642899         3.080758        -0.298644
 H         1.252027         4.029525        -0.729158
 H        -0.156043         2.303167         0.255673
 H         0.541442        -0.166680        -1.137766
 H        -0.513754         1.010386        -1.715254
 H         1.974523         0.457921        -3.021355
 H         1.747727         1.902381         1.760109
