19
Iteration:   342
 C         3.296906         2.055039        -3.268310
 C         2.117026         2.329897        -2.250838
 C         2.425141         2.328862        -0.795586
 C         1.045968         1.875380        -0.181618
 C        -0.067203         1.872485        -1.245763
 C         0.740090         1.961528        -2.624165
 O         1.155257         3.300163        -2.645918
 C         1.489172         0.553401         0.469498
 O         1.585867         0.400997         1.662957
 H         4.140424         2.724885        -3.370756
 H         3.710016         1.155415        -2.725562
 H         2.986641         1.822719        -4.256547
 H         3.155041         1.600548        -0.511832
 H         2.737074         3.277574        -0.395213
 H         0.773382         2.467655         0.734680
 H        -0.618383         0.934051        -0.943423
 H        -0.849044         2.654045        -1.327142
 H         0.431642         1.432580        -3.603312
 H         1.698300        -0.380919        -0.079509
