19
Iteration:  2566charge 0 multiplicity 1
 C         2.973187         3.223015        -3.599618
 C         2.196172         2.486714        -2.425339
 C         2.689537         2.155444        -0.964713
 C         1.398608         1.600923        -0.211986
 C         0.818179         0.791284        -1.458577
 C         1.050641         1.672530        -2.726677
 O         0.802416         2.994350        -2.437702
 C         1.486339         0.760580         1.053870
 O         0.569167         0.837866         1.888431
 H         2.985561         4.242899        -3.360116
 H         4.018572         2.989294        -3.576256
 H         2.455407         2.937494        -4.528571
 H         3.653862         1.549325        -0.926549
 H         2.907455         3.124218        -0.308947
 H         0.691417         2.445964        -0.006849
 H         1.513130        -0.073181        -1.583041
 H        -0.187138         0.350157        -1.377310
 H         0.844494         1.349632        -3.786280
 H         2.366182         0.101685         1.289678
