19
Iteration:   272charge 0 multiplicity 1
 C         3.283302         2.045025        -3.226989
 C         2.193842         2.344502        -2.306067
 C         2.285352         2.363939        -0.826859
 C         1.099798         1.826062        -0.260993
 C        -0.020058         1.653271        -1.299927
 C         0.828483         2.025389        -2.583319
 O         1.199654         3.393631        -2.673179
 C         1.059499         0.615688         0.719919
 O         1.907082         0.351098         1.565425
 H         4.138649         2.687254        -3.205530
 H         3.598191         1.094957        -2.912176
 H         2.874375         2.105500        -4.253537
 H         3.132322         1.648950        -0.446870
 H         2.477909         3.402868        -0.416774
 H         0.683791         2.576000         0.433015
 H        -0.656343         0.653803        -1.310302
 H        -0.806835         2.389354        -1.024709
 H         0.637596         1.555649        -3.467430
 H         0.057953         0.106621         0.765477
