19
Iteration:  1943
 C         3.182843         2.974662        -3.307532
 C         2.115313         2.480836        -2.288152
 C         2.483791         2.134800        -0.901809
 C         1.242803         1.460915        -0.373590
 C         0.636819         0.717617        -1.658405
 C         0.964713         1.728368        -2.712986
 O         0.754289         3.208365        -2.393418
 C         1.515242         0.732578         0.875819
 O         0.993889         1.034087         1.890611
 H         3.703657         3.847970        -2.840956
 H         3.985909         2.215380        -3.507964
 H         2.764958         3.036102        -4.284456
 H         3.398964         1.635165        -0.919134
 H         2.749318         3.017889        -0.351232
 H         0.706029         2.364429        -0.121697
 H         1.135590        -0.273813        -1.772107
 H        -0.494596         0.811279        -1.542653
 H         0.734718         1.552086        -3.881359
 H         2.200695        -0.210913         0.720317
