19
Iteration:  2118charge 0 multiplicity 1
 C         3.421063         2.565569        -2.914634
 C         2.078429         2.557631        -2.274755
 C         2.001050         2.751962        -0.810233
 C         1.011435         1.821207        -0.163850
 C         0.268960         1.199988        -1.396029
 C         1.031447         1.587930        -2.540300
 O         0.847653         2.999603        -3.001652
 C         1.668869         0.790796         0.587552
 O         1.495279         0.415373         1.733565
 H         4.062188         3.488040        -2.895179
 H         3.945121         1.712373        -2.425910
 H         3.327476         2.381342        -3.973618
 H         3.133667         2.653287        -0.540144
 H         1.819869         3.798639        -0.585601
 H         0.269661         2.326481         0.386692
 H         0.328772         0.037136        -1.401395
 H        -0.821432         1.260459        -1.494906
 H         1.037645         0.847206        -3.431039
 H         2.209352         0.169464        -0.173719
