19
Iteration:  3361charge 0 multiplicity 1
 C         3.191542         3.105811        -3.228779
 C         2.107456         2.570268        -2.401776
 C         2.379758         2.455698        -0.915482
 C         1.197842         1.648678        -0.375387
 C         0.853425         0.684625        -1.528414
 C         1.033785         1.554556        -2.710016
 O         0.666352         2.891292        -2.584665
 C         1.589308         0.920032         0.928701
 O         0.853687         0.726700         1.909871
 H         3.278879         4.211465        -3.155992
 H         4.198000         2.568564        -2.883428
 H         3.184534         2.809307        -4.246748
 H         3.486659         2.113761        -0.856872
 H         2.363585         3.556991        -0.468637
 H         0.367656         2.202185        -0.053946
 H         1.452784        -0.236847        -1.518207
 H        -0.149007         0.311550        -1.354276
 H         1.130073         1.252008        -3.729239
 H         2.672059         0.659715         0.881478
