19
Iteration:  1354charge 0 multiplicity 1
 C         3.302599         2.888390        -3.271347
 C         2.157394         2.511374        -2.355195
 C         2.446442         2.027698        -0.898818
 C         1.120278         1.544708        -0.354130
 C         0.371333         0.978177        -1.537560
 C         0.999178         1.746426        -2.792198
 O         0.862974         3.173390        -2.559072
 C         1.235324         0.619581         0.874160
 O         1.423559         1.006090         1.987005
 H         3.937063         3.580309        -2.595734
 H         3.701413         1.971496        -3.637620
 H         2.918237         3.548764        -4.079460
 H         3.276825         1.236999        -0.994573
 H         2.831698         2.842962        -0.337443
 H         0.586460         2.421067         0.025378
 H         0.365177        -0.091213        -1.510299
 H        -0.712672         1.237384        -1.468606
 H         0.805949         1.610465        -3.860644
 H         0.694592        -0.394761         0.681015
