19
Iteration:  2101charge 0 multiplicity 1
 C         3.380487         2.518633        -2.998809
 C         2.050794         2.567009        -2.288145
 C         2.085414         2.866259        -0.710899
 C         0.902320         1.922420        -0.169883
 C         0.353706         1.090087        -1.397540
 C         0.996083         1.606171        -2.750290
 O         0.888353         3.009204        -2.978673
 C         1.604105         0.695523         0.605690
 O         1.517291         0.390493         1.806062
 H         3.827531         3.487826        -2.861471
 H         4.071399         1.896739        -2.464480
 H         3.194100         2.227092        -4.088982
 H         2.989472         2.501334        -0.289927
 H         2.020138         3.953582        -0.487480
 H         0.168582         2.413418         0.540467
 H         0.506161         0.095081        -1.109987
 H        -0.760353         1.309513        -1.410280
 H         1.201312         0.982049        -3.530290
 H         2.389573         0.157335         0.007012
