19
Iteration:  3278charge 0 multiplicity 1
 C         2.928463         3.258835        -3.501114
 C         2.155448         2.552445        -2.395424
 C         2.605628         2.413100        -0.972323
 C         1.431140         1.694037        -0.294939
 C         0.878159         0.707872        -1.378551
 C         1.240666         1.458381        -2.606036
 O         0.757950         2.875315        -2.397172
 C         1.539636         0.868532         0.996871
 O         0.518975         0.721847         1.656662
 H         3.236542         4.295208        -3.190840
 H         3.612051         2.524953        -3.930889
 H         2.048033         3.351263        -4.222608
 H         3.539557         1.743048        -0.962294
 H         2.788417         3.359208        -0.434061
 H         0.679651         2.566419         0.013460
 H         1.677026        -0.037902        -1.228686
 H        -0.219628         0.446270        -1.153137
 H         1.038426         1.035843        -3.641869
 H         2.367645         0.333767         1.459239
