19
Iteration:  4353charge 0 multiplicity 1
 C         3.211000         3.454571        -2.997650
 C         2.094496         2.695343        -2.277243
 C         1.871134         2.889377        -0.785359
 C         0.947122         1.757589        -0.276208
 C         0.769035         0.658053        -1.445783
 C         1.464922         1.364937        -2.655519
 O         0.791997         2.597768        -3.075857
 C         1.463390         1.147044         1.062793
 O         1.257352         0.065878         1.619865
 H         3.156535         4.581610        -2.630460
 H         4.209815         2.941317        -2.720166
 H         3.170959         3.464552        -4.115166
 H         2.832914         2.713176        -0.373377
 H         1.553784         3.877210        -0.618972
 H        -0.070166         2.177392        -0.162243
 H         1.237886        -0.258806        -1.179913
 H        -0.310153         0.482396        -1.584755
 H         1.904945         0.600739        -3.299933
 H         2.236354         1.777055         1.497010
