19
Iteration:   135charge 0 multiplicity 1
 C         3.256573         2.503156        -3.491215
 C         2.237757         2.323398        -2.359412
 C         2.593823         2.191563        -0.819117
 C         1.159713         1.988239        -0.200028
 C         0.335761         1.319902        -1.290201
 C         0.808511         1.884548        -2.564692
 O         1.093372         3.295716        -2.610638
 C         1.176849         1.168728         1.126923
 O         1.197288        -0.055351         1.404569
 H         3.662319         3.490131        -3.527056
 H         4.130303         1.827208        -3.411769
 H         2.729648         2.435990        -4.488152
 H         3.200047         1.286984        -0.717412
 H         3.049661         3.105528        -0.414446
 H         0.702172         2.982599        -0.089710
 H         0.420328         0.274140        -1.327601
 H        -0.702477         1.496087        -1.042702
 H         0.606074         1.351167        -3.470829
 H         1.298561         1.951592         1.989155
