19
Iteration:  3938charge 0 multiplicity 1
 C         3.182492         3.358715        -2.901218
 C         2.119565         2.601483        -2.270967
 C         1.890755         2.816884        -0.739525
 C         0.759015         1.789326        -0.333312
 C         0.798710         0.708098        -1.368931
 C         1.441438         1.269704        -2.531466
 O         0.821319         2.543723        -2.957653
 C         1.279868         1.336759         1.009492
 O         1.535699         0.156429         1.282993
 H         3.202091         4.378298        -2.469883
 H         4.144227         2.744349        -2.751378
 H         2.955564         3.651948        -3.960245
 H         2.828001         2.741064        -0.124833
 H         1.563110         3.883899        -0.664045
 H        -0.176119         2.301216        -0.388364
 H         1.514662        -0.083619        -1.049873
 H        -0.208638         0.329902        -1.606107
 H         1.859238         0.740835        -3.347015
 H         1.518745         2.113404         1.796317
