19
Iteration:  2397
 C         3.376251         2.748737        -3.156588
 C         2.075297         2.527211        -2.336186
 C         2.165893         2.772680        -0.802350
 C         1.135109         1.776135        -0.121877
 C         0.379856         1.193669        -1.399843
 C         0.970478         1.579275        -2.691006
 O         0.879870         2.932663        -2.925728
 C         1.642759         0.621219         0.721657
 O         1.247681         0.453493         1.824599
 H         3.463432         3.854078        -3.281899
 H         4.149223         2.356816        -2.496197
 H         3.408916         2.301409        -4.102955
 H         3.227076         2.753956        -0.417994
 H         1.875243         3.835525        -0.453557
 H         0.401069         2.323298         0.581109
 H         0.349490         0.090866        -1.445509
 H        -0.718135         1.344508        -1.054252
 H         0.861201         0.871736        -3.576292
 H         2.563152         0.068854         0.326872
