19
Iteration:    97charge 0 multiplicity 1
 C         3.249931         2.498746        -3.447672
 C         2.212826         2.450541        -2.367234
 C         2.617484         2.308419        -0.876663
 C         1.342120         1.870437        -0.216826
 C         0.427306         1.129739        -1.172122
 C         0.875481         1.756550        -2.479680
 O         0.939467         3.277344        -2.524206
 C         1.484684         1.156772         1.051114
 O         0.783987         0.173586         1.217277
 H         3.733733         3.550029        -3.312339
 H         4.031593         1.739037        -3.319106
 H         2.833666         2.387865        -4.433390
 H         3.437268         1.566629        -0.741396
 H         2.913203         3.219584        -0.327812
 H         0.827790         2.808927         0.081128
 H         0.473288        -0.007728        -1.259846
 H        -0.610096         1.462120        -0.955960
 H         0.559219         1.224759        -3.472767
 H         2.264073         1.390310         1.785483
