19
Iteration:  3107
 C         3.413823         2.834213        -3.111310
 C         2.100044         2.545623        -2.264089
 C         1.987769         2.832191        -0.797133
 C         0.928215         1.807810        -0.246299
 C         0.398861         0.943791        -1.441773
 C         1.120488         1.476015        -2.652368
 O         0.864219         2.909181        -2.932182
 C         1.658355         0.824941         0.717827
 O         1.385715         0.460282         1.877893
 H         3.489240         3.908099        -3.009760
 H         4.280488         2.253293        -2.750893
 H         3.128830         2.493668        -4.243830
 H         2.844309         2.706886        -0.242787
 H         1.727174         3.939044        -0.634322
 H         0.115993         2.237136         0.348186
 H         0.517060        -0.197968        -1.271795
 H        -0.725794         1.130711        -1.627608
 H         1.299946         0.688662        -3.486546
 H         2.606259         0.362432         0.361840
