19
Iteration:  3105
 C         3.420002         2.842396        -3.105979
 C         2.115078         2.535781        -2.259572
 C         1.987642         2.832697        -0.795455
 C         0.912225         1.796000        -0.250318
 C         0.381681         0.936266        -1.440439
 C         1.114791         1.482145        -2.671753
 O         0.871548         2.904664        -2.930047
 C         1.651975         0.837141         0.727314
 O         1.401143         0.454534         1.878533
 H         3.574522         3.941492        -3.076039
 H         4.263395         2.241953        -2.782439
 H         3.132190         2.479913        -4.198000
 H         2.903078         2.774856        -0.249761
 H         1.705565         3.972180        -0.661714
 H         0.087883         2.261076         0.435865
 H         0.437917        -0.168026        -1.289221
 H        -0.767557         1.038465        -1.637840
 H         1.260614         0.737803        -3.500401
 H         2.612561         0.430925         0.370578
