19
Iteration:   239
 C         3.297783         2.111539        -3.265270
 C         2.238770         2.269219        -2.246648
 C         2.340365         2.235208        -0.744071
 C         0.940633         1.980151        -0.118510
 C         0.044717         1.560286        -1.401343
 C         0.800613         2.029642        -2.648677
 O         1.152669         3.388589        -2.669173
 C         0.952656         0.765454         0.951728
 O         2.002261         0.314515         1.340111
 H         4.186332         2.648175        -2.937442
 H         3.537946         1.081606        -3.411090
 H         2.971566         2.400547        -4.254714
 H         2.948709         1.389954        -0.255777
 H         2.919425         3.120195        -0.377744
 H         0.498236         2.912794         0.244284
 H        -0.042040         0.390137        -1.439115
 H        -0.933308         2.086731        -1.350485
 H         0.635385         1.586783        -3.591577
 H         0.016908         0.339817         1.336510
