19
Iteration:  2471
 C         3.259057         2.872834        -3.365632
 C         2.107933         2.577414        -2.424745
 C         2.291700         2.498774        -0.854668
 C         1.089037         1.734349        -0.221440
 C         0.588302         0.876644        -1.430541
 C         1.072355         1.637269        -2.708635
 O         0.839171         3.075631        -2.775125
 C         1.643163         0.891821         0.973351
 O         1.005519         0.469810         1.915283
 H         3.845725         3.736156        -2.784642
 H         3.939093         1.984763        -3.548428
 H         2.695999         3.214509        -4.270613
 H         3.159674         1.840473        -0.752346
 H         2.650330         3.352657        -0.355677
 H         0.373251         2.432975         0.341064
 H         0.768608        -0.179149        -1.256511
 H        -0.575581         0.822769        -1.414941
 H         0.857068         1.065399        -3.637208
 H         2.711249         0.549096         0.861341
