19
Iteration:  1628charge 0 multiplicity 1
 C         3.393240         2.377565        -2.974717
 C         2.096355         2.534403        -2.257454
 C         2.155652         2.920238        -0.751241
 C         0.889831         1.947124        -0.157507
 C         0.231804         1.162903        -1.329216
 C         0.919614         1.644178        -2.574814
 O         0.935880         3.055658        -2.985721
 C         1.660208         0.791920         0.544794
 O         1.528862         0.259210         1.691916
 H         3.832763         3.372627        -3.492316
 H         4.068885         1.924117        -2.222839
 H         3.287939         1.742705        -3.837857
 H         3.079615         2.602791        -0.222808
 H         1.888812         3.870622        -0.395814
 H         0.182507         2.607433         0.316639
 H         0.223377        -0.015379        -1.304440
 H        -0.889461         1.435850        -1.390234
 H         0.907172         1.094933        -3.562763
 H         2.400518         0.397446        -0.158293
