19
Iteration:  2287
 C         3.404021         2.579548        -2.964984
 C         2.081287         2.553115        -2.258142
 C         2.015375         2.793410        -0.766232
 C         0.902151         1.820339        -0.172305
 C         0.232411         1.252514        -1.432441
 C         1.058484         1.607018        -2.573700
 O         0.862356         2.970461        -3.098652
 C         1.743827         0.715586         0.673588
 O         1.538242         0.355139         1.783354
 H         4.104481         3.381177        -2.729320
 H         3.996846         1.804806        -2.528513
 H         3.293488         2.366884        -3.984173
 H         3.079899         2.930564        -0.377235
 H         1.469322         3.813121        -0.750042
 H         0.165447         2.339612         0.538161
 H         0.121559         0.159692        -1.361512
 H        -0.838219         1.669852        -1.424509
 H         1.006975         0.857595        -3.403645
 H         2.517889         0.216352         0.020475
