19
Iteration:  4086
 C         3.224373         3.383193        -2.991135
 C         2.077005         2.636125        -2.230757
 C         1.918033         2.866027        -0.713818
 C         0.818610         1.803068        -0.281475
 C         0.799706         0.704278        -1.291660
 C         1.418546         1.307985        -2.571412
 O         0.883626         2.540269        -2.994798
 C         1.108131         1.258914         1.051922
 O         1.601267         0.140751         1.216008
 H         3.107964         4.445540        -2.735032
 H         4.154057         2.960049        -2.546733
 H         3.069437         3.159128        -4.079460
 H         2.973512         2.548346        -0.274121
 H         1.474373         3.910096        -0.563786
 H        -0.153112         2.371606        -0.025234
 H         1.232551        -0.233074        -1.140598
 H        -0.241327         0.389038        -1.456192
 H         1.808618         0.572595        -3.281287
 H         1.025247         2.044810         1.907838
