19
Iteration:   921
 C         3.448880         2.157345        -2.930195
 C         2.065116         2.434549        -2.268008
 C         2.133913         2.816271        -0.758512
 C         1.010157         1.934573        -0.070527
 C         0.021407         1.697941        -1.243131
 C         0.873317         1.741230        -2.483124
 O         1.021057         3.059814        -3.086176
 C         1.642282         0.573825         0.436374
 O         1.589741         0.254118         1.615459
 H         4.109102         3.007728        -2.902619
 H         3.909792         1.209750        -2.475252
 H         3.407458         2.040766        -3.948872
 H         3.137714         2.608442        -0.532680
 H         1.832873         3.884983        -0.538177
 H         0.438226         2.459213         0.679970
 H        -0.548212         0.768475        -1.081683
 H        -0.671174         2.534675        -1.353186
 H         0.784021         0.828363        -3.119263
 H         2.070750        -0.025112        -0.371783
