19
Iteration:   107
 C         3.246493         2.507984        -3.466717
 C         2.166532         2.441092        -2.385800
 C         2.588634         2.277987        -0.964358
 C         1.262234         1.898691        -0.170023
 C         0.423412         1.217588        -1.244147
 C         0.936629         1.762011        -2.523192
 O         0.997130         3.260860        -2.453316
 C         1.401380         1.187591         1.151015
 O         0.882901         0.076660         1.252920
 H         3.829837         3.506429        -3.545659
 H         3.960520         1.705720        -3.207063
 H         2.863654         2.258493        -4.417389
 H         3.492917         1.589251        -0.790396
 H         2.922811         3.281767        -0.582272
 H         0.772227         2.890908        -0.039275
 H         0.327814         0.035357        -1.220521
 H        -0.637897         1.587812        -1.102960
 H         0.605117         1.239249        -3.509747
 H         2.040063         1.596096         1.890034
