19
Iteration:  1930
 C         3.125073         2.992223        -3.254639
 C         2.106397         2.546232        -2.378107
 C         2.582812         2.072411        -0.961464
 C         1.250521         1.479386        -0.420798
 C         0.659622         0.771424        -1.616749
 C         0.915268         1.782055        -2.761160
 O         0.806998         3.132817        -2.372444
 C         1.478762         0.727305         0.870510
 O         0.962317         1.062970         1.967075
 H         3.619117         3.891081        -2.934751
 H         3.836019         2.107612        -3.206926
 H         2.771289         3.348968        -4.196619
 H         3.282864         1.208086        -0.985227
 H         2.929406         2.923539        -0.306257
 H         0.396172         2.176504        -0.152052
 H         1.261383        -0.146560        -2.022280
 H        -0.269942         0.245999        -1.483416
 H         0.758538         1.456449        -3.803399
 H         2.239767        -0.158665         0.898975
