19
Iteration:   806
 C         3.434144         2.220866        -3.097671
 C         2.172426         2.304128        -2.325543
 C         2.063685         2.643273        -0.836988
 C         0.920812         1.769575        -0.171143
 C        -0.003052         1.515939        -1.329420
 C         0.816059         1.837561        -2.628568
 O         1.165472         3.218911        -2.812360
 C         1.488654         0.525821         0.570532
 O         1.728722         0.510630         1.783198
 H         4.066421         3.122293        -2.980535
 H         3.885403         1.387539        -2.721167
 H         3.236738         2.211298        -4.274748
 H         3.142606         2.468261        -0.526102
 H         1.894177         3.689105        -0.648224
 H         0.508594         2.484512         0.570665
 H        -0.437457         0.561134        -1.358569
 H        -0.749375         2.296535        -1.261548
 H         0.488652         1.389642        -3.531173
 H         1.539109        -0.472482         0.056934
