19
Iteration:  1604
 C         3.469246         2.430172        -2.892656
 C         2.088566         2.465286        -2.258969
 C         2.025201         2.749847        -0.817685
 C         0.971757         1.900610        -0.139315
 C         0.161793         1.304574        -1.354000
 C         0.954386         1.592367        -2.594761
 O         0.902345         3.016572        -2.890010
 C         1.720398         0.747225         0.452690
 O         1.526697         0.412041         1.658339
 H         3.852887         3.497100        -3.056721
 H         4.156442         1.784223        -2.295423
 H         3.353062         2.136630        -3.953002
 H         3.005794         2.529933        -0.299947
 H         1.786275         3.809873        -0.617876
 H         0.379662         2.410116         0.650775
 H         0.026099         0.141550        -1.327393
 H        -0.920751         1.707712        -1.397033
 H         0.826813         1.110517        -3.587410
 H         2.550526         0.343174        -0.127232
