19
Iteration:  1576
 C         3.444857         2.548660        -2.990069
 C         2.097197         2.412864        -2.250231
 C         2.013900         2.774755        -0.786723
 C         0.997330         1.812540        -0.157355
 C        -0.026769         1.425216        -1.410153
 C         0.948522         1.577126        -2.575143
 O         1.007572         2.964524        -2.973042
 C         1.707342         0.583505         0.564628
 O         1.593632         0.468689         1.734287
 H         3.953560         3.389179        -2.460945
 H         4.243761         1.811093        -2.836202
 H         3.224613         2.741472        -4.037522
 H         2.915851         2.689288        -0.198223
 H         1.628393         3.812625        -0.669348
 H         0.468232         2.308384         0.671890
 H        -0.238745         0.382526        -1.448412
 H        -0.913005         2.006075        -1.368401
 H         1.128858         0.986027        -3.474930
 H         2.362587        -0.068499        -0.072547
