19
Iteration:  1207charge 0 multiplicity 1
 C         3.244340         2.841914        -3.442422
 C         2.185862         2.445694        -2.334863
 C         2.506401         2.089523        -0.978029
 C         1.176860         1.817600        -0.252502
 C         0.371247         1.082474        -1.463923
 C         0.945986         1.742257        -2.740356
 O         0.937847         3.178053        -2.547844
 C         1.351473         0.633903         0.807949
 O         1.135334         0.777024         2.061156
 H         3.906815         3.641633        -3.121992
 H         3.903566         1.899261        -3.455348
 H         2.733601         3.017809        -4.359600
 H         3.098104         1.184100        -0.985419
 H         3.177139         2.871447        -0.514754
 H         0.737561         2.633726         0.324203
 H         0.605729         0.051423        -1.620893
 H        -0.654517         1.308720        -1.292620
 H         0.900183         1.271158        -3.727839
 H         1.600290        -0.369647         0.443935
