19
Iteration:  4067charge 0 multiplicity 1
 C         3.205316         3.395427        -2.845836
 C         2.050034         2.518074        -2.215787
 C         1.922001         2.862032        -0.734179
 C         0.811207         1.880823        -0.330127
 C         0.698865         0.730265        -1.471105
 C         1.541463         1.269256        -2.557500
 O         0.797086         2.515174        -2.927752
 C         1.304516         1.333595         1.039063
 O         1.565779         0.143093         1.233858
 H         2.862639         4.391092        -2.777527
 H         4.090216         3.267683        -2.335876
 H         3.201086         2.896364        -3.881742
 H         2.938209         2.618064        -0.378459
 H         1.616113         3.853816        -0.635823
 H        -0.210942         2.315214        -0.166037
 H         0.983220        -0.231044        -0.936446
 H        -0.319445         0.439079        -1.943395
 H         1.888872         0.667256        -3.370938
 H         1.324566         1.955710         1.922360
