19
Iteration:   927charge 0 multiplicity 1
 C         3.426889         2.137054        -2.888186
 C         2.109968         2.476540        -2.222886
 C         2.162749         2.865343        -0.814776
 C         1.048186         1.919596        -0.037057
 C        -0.012205         1.692078        -1.303458
 C         0.822315         1.728541        -2.506994
 O         0.984771         3.035804        -3.091745
 C         1.620410         0.593482         0.468682
 O         1.597376         0.224283         1.609069
 H         4.165805         2.979277        -2.731739
 H         3.902817         1.285178        -2.459122
 H         3.265368         1.953804        -4.068722
 H         3.237380         2.611764        -0.455233
 H         2.132659         3.876408        -0.396329
 H         0.519660         2.586101         0.716514
 H        -0.574285         0.751191        -1.297719
 H        -0.706695         2.547645        -1.433568
 H         0.854227         0.924676        -3.234187
 H         2.328132        -0.022081        -0.241947
