19
Iteration:   114charge 0 multiplicity 1
 C         3.238832         2.500769        -3.465797
 C         2.209303         2.443767        -2.398878
 C         2.599469         2.303881        -0.932077
 C         1.248543         1.943976        -0.166158
 C         0.362699         1.270717        -1.280858
 C         0.909714         1.755709        -2.570918
 O         1.025064         3.224555        -2.442706
 C         1.366758         1.169355         1.149088
 O         0.934794         0.016961         1.305843
 H         3.774259         3.428054        -3.602286
 H         4.005008         1.755092        -3.174046
 H         2.804322         2.297062        -4.462855
 H         3.355885         1.442218        -0.951360
 H         3.051386         3.294142        -0.756810
 H         0.782874         2.920883         0.069265
 H         0.504574         0.136885        -1.104538
 H        -0.724332         1.458219        -1.244081
 H         0.592461         1.512533        -3.585684
 H         1.835878         1.835110         2.021921
