19
Iteration:  1506charge 0 multiplicity 1
 C         3.452444         2.474612        -2.981668
 C         2.112945         2.439744        -2.247873
 C         2.067307         2.661578        -0.695205
 C         0.922350         1.815455        -0.212066
 C         0.124583         1.208000        -1.469663
 C         0.941264         1.630423        -2.658350
 O         0.957847         3.076065        -2.815036
 C         1.445047         0.632321         0.535190
 O         1.758756         0.644168         1.668688
 H         3.913854         3.395169        -2.497564
 H         4.245661         1.824861        -2.618997
 H         3.332096         2.580662        -4.067387
 H         3.052717         2.468754        -0.254761
 H         1.787858         3.634922        -0.461276
 H         0.331848         2.338085         0.582304
 H         0.007426         0.095902        -1.273089
 H        -0.905997         1.666537        -1.631988
 H         0.951002         0.992741        -3.539225
 H         1.613367        -0.247921        -0.114861
