19
Iteration:  4259
 C         3.139238         3.380185        -3.130972
 C         2.052958         2.649349        -2.269242
 C         2.073282         2.826686        -0.703319
 C         0.941277         1.759661        -0.292420
 C         0.957222         0.618612        -1.343568
 C         1.426071         1.337544        -2.565290
 O         0.830384         2.665895        -2.903286
 C         1.010017         1.283212         1.108030
 O         1.420753         0.124577         1.323682
 H         2.913633         4.433982        -3.199842
 H         4.159368         3.082190        -2.771240
 H         2.965727         2.883179        -4.118417
 H         3.048637         2.287148        -0.351773
 H         1.925442         3.940242        -0.339235
 H        -0.032552         2.285226        -0.332678
 H         1.922976        -0.117851        -1.239123
 H         0.028156         0.021294        -1.390885
 H         1.602367         0.885209        -3.545507
 H         0.819918         1.973466         1.939558
