19
Iteration:  3217charge 0 multiplicity 1
 C         3.134494         3.021346        -3.357483
 C         2.094672         2.637557        -2.362700
 C         2.359455         2.485643        -0.890055
 C         1.277770         1.652492        -0.328949
 C         0.805349         0.731047        -1.493982
 C         1.128442         1.508954        -2.750400
 O         0.711339         2.989154        -2.559476
 C         1.627713         1.011652         1.062196
 O         0.784009         0.562698         1.815322
 H         3.474257         4.034672        -3.305259
 H         4.117291         2.551869        -3.234930
 H         2.821399         2.981188        -4.457011
 H         3.165333         1.783937        -0.867355
 H         2.614145         3.403670        -0.264684
 H         0.474320         2.285269        -0.078906
 H         1.298844        -0.239022        -1.368801
 H        -0.226060         0.409247        -1.412021
 H         1.020117         1.111904        -3.790213
 H         2.726418         0.876698         1.186151
