19
Iteration:  3175charge 0 multiplicity 1
 C         3.246800         3.097113        -3.250749
 C         2.119095         2.495368        -2.412069
 C         2.203214         2.587272        -0.846316
 C         1.079718         1.836498        -0.231166
 C         0.597831         0.886147        -1.428564
 C         1.125078         1.458793        -2.715273
 O         0.844744         2.913356        -2.795778
 C         1.645402         0.811734         0.944694
 O         1.024611         0.489728         1.903236
 H         3.282457         4.249205        -3.137538
 H         4.274780         2.543597        -3.263351
 H         2.908653         2.880218        -4.354058
 H         3.197740         2.298919        -0.514289
 H         2.208263         3.618765        -0.590936
 H         0.297944         2.426671         0.041813
 H         0.865237        -0.257941        -1.363000
 H        -0.465124         0.754458        -1.352509
 H         1.123570         0.991058        -3.703028
 H         2.750413         0.575574         0.831381
