19
Iteration:  3438charge 0 multiplicity 1
 C         3.321439         3.153418        -3.026570
 C         2.095209         2.587618        -2.311339
 C         2.022645         2.671104        -0.833629
 C         0.962963         1.638806        -0.319419
 C         0.472585         0.842823        -1.551180
 C         1.217500         1.426247        -2.699793
 O         0.809639         2.774693        -2.960048
 C         1.463677         0.668753         0.798703
 O         1.450453         0.783667         2.027077
 H         3.616570         4.116116        -2.584110
 H         4.172219         2.420278        -2.763173
 H         3.418963         3.153849        -4.072116
 H         3.160666         2.685860        -0.557443
 H         1.928053         3.804909        -0.515442
 H         0.200377         2.210359         0.119657
 H         0.727907        -0.209018        -1.359622
 H        -0.617170         0.996864        -1.586293
 H         1.253210         0.799640        -3.646508
 H         1.875596        -0.168697         0.246412
