19
Iteration:  4124
 C         3.230311         3.197343        -3.010930
 C         2.028199         2.681210        -2.264633
 C         1.900818         2.866222        -0.746864
 C         0.832442         1.765826        -0.258729
 C         1.007754         0.726136        -1.453509
 C         1.411108         1.384658        -2.659048
 O         0.772167         2.682998        -2.909781
 C         0.987581         1.166587         1.074797
 O         1.637739         0.167758         1.435957
 H         3.730536         4.160736        -2.965063
 H         3.979173         2.433062        -2.891673
 H         3.070102         3.106309        -4.070988
 H         2.859361         2.917025        -0.292904
 H         1.650047         3.873292        -0.561589
 H        -0.181134         2.072381        -0.383387
 H         1.846162         0.053546        -1.063608
 H        -0.000860         0.303640        -1.680807
 H         1.830183         0.890996        -3.548340
 H         0.455178         1.707756         1.885503
