19
Iteration:  3111charge 0 multiplicity 1
 C         3.379602         2.807885        -3.125952
 C         2.081303         2.555158        -2.286376
 C         1.974168         2.834301        -0.799869
 C         0.964154         1.818463        -0.233396
 C         0.421526         0.956426        -1.442617
 C         1.141556         1.461101        -2.621425
 O         0.850238         2.909299        -2.937248
 C         1.671659         0.796866         0.716213
 O         1.354148         0.478497         1.863883
 H         3.419910         3.900024        -2.937124
 H         4.280851         2.314211        -2.701660
 H         3.202296         2.606465        -4.116924
 H         2.935484         2.559480        -0.178452
 H         1.739717         3.820288        -0.587933
 H         0.101983         2.252275         0.221970
 H         0.650949        -0.097741        -1.280846
 H        -0.576622         1.256223        -1.560499
 H         1.347800         0.763393        -3.402459
 H         2.589408         0.266074         0.268714
