19
Iteration:  1252
 C         3.219587         2.961254        -3.365047
 C         2.180268         2.425832        -2.436479
 C         2.623495         1.938910        -1.051266
 C         1.243388         1.434538        -0.341676
 C         0.381062         0.889006        -1.560616
 C         0.871897         1.831711        -2.695680
 O         0.995996         3.218976        -2.337973
 C         1.207716         0.633956         0.891523
 O         1.173477         1.145002         1.969392
 H         3.492577         3.919902        -2.945062
 H         4.068649         2.219835        -3.215561
 H         2.635067         3.022662        -4.304717
 H         3.298631         1.075865        -1.173910
 H         3.155567         2.633298        -0.361609
 H         0.744499         2.333816         0.103854
 H         0.804461        -0.067695        -1.827179
 H        -0.709071         0.957205        -1.584126
 H         0.491445         1.813347        -3.709136
 H         1.150630        -0.476491         0.680470
