19
Iteration:  2788
 C         3.373024         2.729869        -2.965973
 C         2.094861         2.554552        -2.191662
 C         1.885335         2.831271        -0.643704
 C         0.998974         1.653455        -0.259601
 C         0.257131         1.060390        -1.584930
 C         1.188527         1.528137        -2.699168
 O         0.873837         2.933706        -3.038093
 C         1.621058         0.546865         0.679914
 O         1.579195         0.732131         1.873511
 H         3.382333         3.763337        -3.333029
 H         4.228015         2.349660        -2.433024
 H         3.187840         2.246654        -3.879569
 H         2.898250         2.643841        -0.226161
 H         1.393720         3.896947        -0.455223
 H         0.273419         2.049693         0.370900
 H         0.053290         0.005233        -1.540745
 H        -0.743048         1.534031        -1.717449
 H         1.429070         0.915800        -3.472645
 H         2.204690        -0.297350         0.330820
