19
Iteration:  4340charge 0 multiplicity 1
 C         3.174703         3.327179        -2.948769
 C         2.028215         2.646323        -2.306261
 C         1.877110         2.913052        -0.794349
 C         0.939192         1.748581        -0.263641
 C         0.889791         0.706432        -1.429145
 C         1.386658         1.388439        -2.704712
 O         0.845966         2.618772        -3.075641
 C         1.507112         1.184687         1.130493
 O         1.228703         0.055023         1.552275
 H         3.233220         4.430931        -2.548269
 H         4.194538         2.899979        -2.696130
 H         2.974510         3.400724        -4.151098
 H         2.796596         2.982606        -0.241484
 H         1.419689         3.952890        -0.547032
 H        -0.059727         2.131815         0.078275
 H         1.610166        -0.184845        -1.253737
 H        -0.145017         0.310720        -1.585398
 H         1.739951         0.995570        -3.658676
 H         1.975283         1.897431         1.786922
