19
Iteration:  1159
 C         3.334492         2.449670        -3.293151
 C         2.125024         2.391036        -2.389632
 C         2.304542         2.485512        -0.869039
 C         1.182357         1.737503        -0.243451
 C         0.315977         1.184145        -1.396944
 C         0.834045         1.798435        -2.723145
 O         0.996589         3.263431        -2.630737
 C         1.604343         0.692274         0.802245
 O         1.144571         0.550337         1.863107
 H         3.944248         3.312951        -2.980580
 H         3.995729         1.634024        -3.234606
 H         3.020755         2.607240        -4.345548
 H         3.300559         2.140352        -0.779592
 H         2.385554         3.481594        -0.490432
 H         0.775725         2.481901         0.452760
 H         0.442304         0.098703        -1.533253
 H        -0.685716         1.569811        -1.247704
 H         0.312038         1.390068        -3.622166
 H         2.408030         0.020679         0.462346
