19
Iteration:  1021charge 0 multiplicity 1
 C         3.409504         2.265241        -3.119040
 C         2.111670         2.515297        -2.317240
 C         2.263846         2.753211        -0.735377
 C         1.114569         2.031061        -0.031414
 C         0.114820         1.561041        -1.172297
 C         0.934982         1.648569        -2.445358
 O         0.917484         3.003771        -3.036502
 C         1.626708         0.764140         0.526573
 O         1.307889         0.171510         1.528208
 H         3.979666         3.147087        -3.317567
 H         4.167912         1.559789        -2.623385
 H         3.171489         1.861013        -4.003770
 H         3.179249         2.451155        -0.265048
 H         2.257591         3.817152        -0.451648
 H         0.864472         2.666238         0.785757
 H        -0.320818         0.563719        -1.076636
 H        -0.626099         2.343356        -1.272470
 H         0.910583         0.734432        -3.043774
 H         2.464167         0.195640        -0.052221
