19
Iteration:  1873charge 0 multiplicity 1
 C         3.049772         3.217643        -3.285474
 C         2.200498         2.451515        -2.341870
 C         2.648638         2.050493        -0.964799
 C         1.376852         1.547210        -0.292786
 C         0.504361         0.825400        -1.579949
 C         0.968635         1.623058        -2.742912
 O         0.883432         3.029569        -2.403178
 C         1.470809         0.622271         0.833584
 O         0.904359         1.116892         1.897384
 H         3.323286         4.148781        -2.900665
 H         3.804771         2.567482        -3.753547
 H         2.306159         3.114310        -4.111397
 H         3.526009         1.397766        -0.963618
 H         3.115219         2.888183        -0.368252
 H         0.703746         2.343307         0.153621
 H         0.647704        -0.287383        -1.779592
 H        -0.467417         1.206029        -1.611359
 H         0.740678         1.336181        -3.687961
 H         1.626348        -0.480120         0.658948
