19
Iteration:  3966
 C         3.295078         3.183505        -2.899245
 C         2.012842         2.703300        -2.257857
 C         1.712918         3.034480        -0.743066
 C         0.856086         1.806817        -0.280446
 C         0.909117         0.661541        -1.385004
 C         1.451903         1.323459        -2.544031
 O         0.789206         2.591247        -2.995189
 C         1.351529         1.270560         1.085492
 O         1.495139         0.096644         1.252853
 H         3.363669         4.263857        -2.902381
 H         4.019247         2.559433        -2.506046
 H         3.136335         2.936586        -4.005462
 H         2.639107         3.098937        -0.111512
 H         1.152888         3.973957        -0.783038
 H        -0.238801         2.114274        -0.358660
 H         1.575821        -0.177619        -1.104910
 H        -0.134165         0.252186        -1.505759
 H         1.765336         0.803113        -3.477113
 H         1.673308         1.947490         1.931835
