19
Iteration:  3811charge 0 multiplicity 1
 C         3.226730         3.273168        -2.999684
 C         2.069040         2.652654        -2.238746
 C         2.072425         2.615432        -0.704431
 C         0.831775         1.630876        -0.365260
 C         0.908375         0.593706        -1.495184
 C         1.358826         1.424230        -2.711376
 O         0.715205         2.772738        -2.864389
 C         0.872507         1.137202         1.076174
 O         1.765930         0.464694         1.470075
 H         3.136665         4.399941        -3.005345
 H         4.255565         3.311297        -2.490419
 H         3.346259         2.671313        -3.950099
 H         3.004836         2.207442        -0.277511
 H         2.009329         3.673014        -0.321306
 H        -0.142643         2.267016        -0.616408
 H         1.625483        -0.234363        -1.254814
 H        -0.062887         0.087448        -1.477157
 H         1.649571         0.916867        -3.640604
 H        -0.016581         1.570835         1.623777
