19
Iteration:   395charge 0 multiplicity 1
 C         3.247477         2.044314        -3.422850
 C         2.157929         2.402910        -2.310293
 C         2.512208         2.541633        -0.870958
 C         1.250604         1.947904        -0.092139
 C         0.117710         1.637025        -1.188800
 C         0.690944         2.054136        -2.489258
 O         1.159236         3.331714        -2.842380
 C         1.452060         0.567939         0.647547
 O         1.263784         0.188686         1.791541
 H         4.138110         2.591233        -3.293602
 H         3.529552         0.973366        -3.482143
 H         2.797536         2.337611        -4.373500
 H         3.346632         1.772774        -0.752383
 H         2.683660         3.597663        -0.528810
 H         0.925421         2.661263         0.687240
 H        -0.122239         0.500308        -1.197003
 H        -0.870231         2.163726        -1.070554
 H         0.356918         1.514608        -3.345268
 H         1.879193        -0.167551        -0.071239
