19
Iteration:  3064charge 0 multiplicity 1
 C         3.388149         2.746433        -2.832508
 C         2.069062         2.495552        -2.227739
 C         1.888386         2.878017        -0.799377
 C         0.925971         1.719270        -0.227086
 C         0.263499         0.959371        -1.446132
 C         1.103266         1.473395        -2.686706
 O         0.888244         2.942666        -3.031813
 C         1.783544         0.826658         0.641688
 O         1.493963         0.536517         1.789767
 H         3.747789         3.765752        -2.851282
 H         4.140656         2.037301        -2.446899
 H         3.192086         2.364803        -3.944997
 H         2.879698         2.786835        -0.344288
 H         1.477580         3.917299        -0.655930
 H         0.132445         2.104722         0.335280
 H         0.475008        -0.127754        -1.252264
 H        -0.720288         1.416028        -1.527960
 H         1.241383         0.904945        -3.701156
 H         2.830103         0.587139         0.223142
