19
Iteration:   436
 C         3.229107         2.160706        -3.401986
 C         2.150117         2.308677        -2.414785
 C         2.570713         2.387154        -0.929010
 C         1.315078         1.858111        -0.149714
 C         0.108063         1.611827        -1.146336
 C         0.728242         1.958984        -2.542623
 O         1.070436         3.300051        -2.567461
 C         1.670846         0.655782         0.656950
 O         1.012654         0.380772         1.617679
 H         4.010352         2.933347        -3.359630
 H         3.687623         1.198629        -3.219761
 H         2.779245         2.246838        -4.475611
 H         3.342956         1.600752        -0.810771
 H         3.121708         3.274520        -0.484565
 H         0.901966         2.626939         0.484464
 H        -0.316507         0.680275        -1.091163
 H        -0.643356         2.265768        -0.775584
 H         0.359339         1.476704        -3.359211
 H         2.727042         0.128846         0.452655
