19
Iteration:   831
 C         3.393124         2.180019        -2.964355
 C         2.131857         2.350759        -2.230735
 C         2.165579         2.572745        -0.715261
 C         0.985333         1.919563        -0.166137
 C        -0.053445         1.558445        -1.370719
 C         0.803742         1.828278        -2.576319
 O         1.060184         3.164074        -2.949549
 C         1.485678         0.541820         0.496819
 O         1.749657         0.484495         1.654715
 H         3.906011         3.186629        -3.116602
 H         4.007608         1.570186        -2.211461
 H         3.424581         1.870244        -4.158326
 H         3.174945         2.204567        -0.443703
 H         2.247786         3.688195        -0.381852
 H         0.553342         2.530026         0.703438
 H        -0.385001         0.543645        -1.215814
 H        -0.837106         2.302500        -1.488285
 H         0.652760         1.209613        -3.479123
 H         1.940823        -0.284783        -0.146255
