19
Iteration:   688
 C         3.333794         2.537229        -3.469035
 C         2.188408         2.399484        -2.329446
 C         2.486068         2.101859        -0.884854
 C         1.137368         1.584883        -0.269876
 C         0.190697         1.272179        -1.456865
 C         0.762532         1.920821        -2.687844
 O         1.059631         3.324467        -2.571617
 C         1.373787         0.599332         0.800417
 O         1.287589         0.805861         2.015647
 H         3.631383         3.561501        -3.666451
 H         4.165303         1.881130        -3.396082
 H         2.775399         2.516512        -4.420240
 H         3.284248         1.358944        -0.982198
 H         3.006817         2.844622        -0.242675
 H         0.747651         2.469166         0.290305
 H         0.233822         0.175387        -1.712174
 H        -0.804499         1.656916        -1.258444
 H         0.591748         1.586222        -3.651310
 H         1.714878        -0.491579         0.557916
