19
Iteration:  3939charge 0 multiplicity 1
 C         3.184647         3.352154        -2.905513
 C         2.120481         2.599921        -2.263662
 C         1.884526         2.824847        -0.742373
 C         0.757112         1.781007        -0.332664
 C         0.806436         0.712877        -1.370332
 C         1.436419         1.271979        -2.533337
 O         0.820384         2.544037        -2.956820
 C         1.287419         1.328797         1.003542
 O         1.531378         0.161969         1.279174
 H         3.173129         4.362693        -2.482699
 H         4.121179         2.720791        -2.743808
 H         2.966007         3.636523        -3.898037
 H         2.850471         2.719573        -0.103783
 H         1.526733         3.924598        -0.681894
 H        -0.183533         2.337211        -0.354514
 H         1.511446        -0.054473        -1.030761
 H        -0.170428         0.333219        -1.585957
 H         1.896753         0.739888        -3.348308
 H         1.530623         2.100198         1.811961
