19
Iteration:  4672charge 0 multiplicity 1
 C         3.227524         3.328035        -2.863375
 C         2.120198         2.590865        -2.193748
 C         1.699956         2.985756        -0.762980
 C         0.774192         1.881944        -0.245553
 C         0.607580         0.778804        -1.379935
 C         1.506326         1.263480        -2.519270
 O         0.889109         2.470435        -3.008601
 C         1.411899         1.242163         1.057633
 O         1.599464         0.067577         1.129885
 H         3.043953         4.399565        -2.804941
 H         4.293553         3.304305        -2.476740
 H         3.265705         3.102309        -3.850840
 H         2.595220         3.167375        -0.080199
 H         1.381638         4.152604        -0.854996
 H        -0.248300         2.302751         0.030929
 H         1.020003        -0.322869        -0.989885
 H        -0.514353         0.603425        -1.703010
 H         1.996816         0.468629        -3.159658
 H         1.758012         1.931927         1.837770
