19
Iteration:  1154charge 0 multiplicity 1
 C         3.335001         2.454106        -3.305589
 C         2.137525         2.381655        -2.388758
 C         2.315686         2.502026        -0.888449
 C         1.168560         1.790437        -0.220250
 C         0.350251         1.172365        -1.388632
 C         0.826196         1.789773        -2.679868
 O         0.990667         3.283104        -2.659645
 C         1.590958         0.702273         0.747115
 O         1.148948         0.502243         1.891743
 H         3.990585         3.256408        -2.933765
 H         3.884337         1.460911        -3.008428
 H         3.116494         2.491761        -4.396644
 H         3.375659         2.068141        -0.649527
 H         2.245025         3.594721        -0.597054
 H         0.632590         2.505566         0.430258
 H         0.353396         0.056822        -1.543487
 H        -0.734323         1.499584        -1.280537
 H         0.264534         1.483641        -3.544647
 H         2.516665         0.126696         0.344190
