19
Iteration:   475charge 0 multiplicity 1
 C         3.138266         2.345103        -3.654195
 C         2.188722         2.326770        -2.433039
 C         2.649848         2.263422        -1.000226
 C         1.390487         1.975917        -0.095228
 C         0.369311         1.488413        -1.070497
 C         0.718598         1.953518        -2.501347
 O         1.103938         3.305048        -2.599972
 C         1.550692         0.700927         0.850407
 O         0.776056         0.324153         1.700192
 H         3.647451         3.350088        -3.678885
 H         3.958623         1.634212        -3.513991
 H         2.728790         2.246035        -4.642070
 H         3.206472         1.223387        -0.822373
 H         3.439567         3.036471        -0.841523
 H         1.018828         2.674744         0.688607
 H         0.311317         0.271223        -1.135269
 H        -0.649586         1.904609        -0.720357
 H         0.324430         1.519393        -3.569109
 H         2.422794         0.047401         0.523503
