19
Iteration:  1132
 C         3.395089         2.304176        -3.286413
 C         2.146907         2.514795        -2.346739
 C         2.350371         2.610714        -0.853391
 C         1.049214         1.921062        -0.182850
 C         0.263478         1.184623        -1.283734
 C         0.847862         1.812491        -2.625123
 O         0.939840         3.242358        -2.769027
 C         1.587251         0.802182         0.698955
 O         1.203218         0.320142         1.816283
 H         4.031672         3.197913        -3.162947
 H         4.049602         1.392757        -2.985767
 H         3.046878         2.269664        -4.314299
 H         3.353899         2.016052        -0.802402
 H         2.537816         3.634431        -0.417373
 H         0.629607         2.687407         0.462653
 H         0.744393         0.169233        -1.420182
 H        -0.855179         1.126321        -1.137858
 H         0.746282         1.170773        -3.492689
 H         2.306343         0.158151         0.104237
