19
Iteration:  3475
 C         3.315678         3.004824        -2.794693
 C         2.057697         2.520543        -2.196370
 C         1.929561         2.636612        -0.715684
 C         0.792618         1.550541        -0.338477
 C         0.385509         0.892514        -1.592681
 C         1.175720         1.436433        -2.746920
 O         0.903970         2.807516        -2.972395
 C         1.592927         0.752572         0.640293
 O         1.657275         0.968231         1.860134
 H         3.555517         4.095360        -2.520688
 H         4.113499         2.365316        -2.413079
 H         3.208652         2.921025        -4.001234
 H         2.927478         2.264119        -0.265092
 H         1.495409         3.497111        -0.378108
 H        -0.090807         2.034270         0.162335
 H         0.659133        -0.191860        -1.595491
 H        -0.714913         0.834933        -1.892011
 H         1.269943         0.917467        -3.683601
 H         2.182134        -0.057813         0.346551
