19
Iteration:  3784charge 0 multiplicity 1
 C         3.207636         3.376395        -2.879203
 C         2.083792         2.608160        -2.266028
 C         2.003108         2.651613        -0.759743
 C         0.774013         1.717968        -0.286187
 C         0.702219         0.765115        -1.507164
 C         1.425982         1.349277        -2.738750
 O         0.848277         2.637786        -2.998576
 C         0.920200         1.074366         1.064866
 O         1.881512         0.422044         1.536791
 H         3.107860         4.418006        -2.697700
 H         4.232038         3.089954        -2.707651
 H         3.115371         3.166759        -3.961469
 H         3.009119         2.101130        -0.382892
 H         1.839244         3.742912        -0.417487
 H        -0.122396         2.336645        -0.202030
 H         1.123475        -0.161070        -1.130944
 H        -0.361238         0.461327        -1.658073
 H         1.547369         0.647623        -3.588985
 H         0.021830         1.317246         1.618322
