19
Iteration:  2065
 C         3.394883         2.671240        -3.158401
 C         2.135724         2.451813        -2.299301
 C         2.013030         2.705204        -0.765071
 C         0.961287         1.717888        -0.185659
 C         0.320357         1.101266        -1.384310
 C         1.002654         1.579411        -2.694567
 O         0.937395         3.088295        -2.817502
 C         1.708148         0.703763         0.629826
 O         1.354269         0.545519         1.836414
 H         3.668451         3.747864        -3.190540
 H         4.235704         2.091494        -2.842035
 H         3.293176         2.395456        -4.222459
 H         3.094102         2.535099        -0.321970
 H         1.885117         3.766266        -0.665118
 H         0.198538         2.058902         0.440654
 H         0.137104        -0.003075        -1.237341
 H        -0.770537         1.503489        -1.507974
 H         1.095646         1.017328        -3.676695
 H         2.635496         0.192971         0.246853
