19
Iteration:  2098
 C         3.386874         2.527521        -3.019944
 C         2.075027         2.568482        -2.272870
 C         2.091815         2.857307        -0.702500
 C         0.903842         1.898084        -0.183196
 C         0.335135         1.095525        -1.413749
 C         0.967587         1.607744        -2.747884
 O         0.895253         3.022254        -2.970377
 C         1.582453         0.696267         0.652685
 O         1.517154         0.393349         1.803048
 H         3.888494         3.533776        -3.046091
 H         4.041151         1.922336        -2.488352
 H         3.160718         2.291623        -4.078766
 H         3.224556         2.588831        -0.261880
 H         1.992708         3.929280        -0.606648
 H         0.191838         2.316713         0.445208
 H         0.469779         0.065706        -1.012012
 H        -0.856615         1.136753        -1.428751
 H         1.336909         0.912014        -3.539946
 H         2.410619         0.255250        -0.029160
