19
Iteration:  2428charge 0 multiplicity 1
 C         3.313945         2.762161        -3.192974
 C         2.094453         2.509706        -2.345044
 C         2.198822         2.727925        -0.889296
 C         1.129320         1.841723        -0.147575
 C         0.492863         0.968855        -1.373764
 C         1.043740         1.535107        -2.637998
 O         0.840344         3.020369        -2.740975
 C         1.639973         0.742675         0.667626
 O         1.139654         0.503744         1.807925
 H         3.792027         3.838295        -3.023406
 H         4.224830         2.200726        -2.799237
 H         3.103502         2.466855        -4.256328
 H         3.162822         2.284529        -0.605440
 H         2.192718         3.766182        -0.599748
 H         0.228210         2.373673         0.333017
 H         0.472358        -0.139391        -1.381310
 H        -0.671131         1.208130        -1.235303
 H         0.996053         1.068128        -3.666175
 H         2.425826         0.102398         0.228102
