19
Iteration:  1667charge 0 multiplicity 1
 C         3.393993         2.486050        -3.122586
 C         2.157501         2.504818        -2.267546
 C         2.093960         2.924979        -0.749900
 C         1.074483         1.845267        -0.173608
 C         0.154052         1.194584        -1.327392
 C         0.957463         1.630707        -2.563276
 O         0.958818         3.019448        -2.940301
 C         1.741465         0.699415         0.608500
 O         1.341864         0.316236         1.716203
 H         3.622341         3.464194        -3.322960
 H         4.305447         2.125180        -2.659656
 H         3.203350         1.913432        -4.049702
 H         3.049939         3.011346        -0.222297
 H         1.685828         3.954926        -0.894061
 H         0.384204         2.225962         0.622219
 H         0.018649         0.172376        -1.254442
 H        -0.788873         1.682178        -1.300895
 H         0.714478         1.031521        -3.410151
 H         2.695341         0.224002         0.254556
