19
Iteration:  1366
 C         3.269417         2.880164        -3.287346
 C         2.160983         2.495913        -2.318212
 C         2.467353         2.183327        -0.866672
 C         1.106840         1.602067        -0.325909
 C         0.349936         1.071507        -1.591357
 C         0.987266         1.681876        -2.731065
 O         0.890609         3.149382        -2.619097
 C         1.148602         0.601522         0.873028
 O         1.467526         0.908508         1.999068
 H         4.150602         3.551787        -3.023817
 H         3.840533         2.093994        -3.680129
 H         2.761664         3.316922        -4.117675
 H         3.179664         1.283815        -0.907767
 H         2.909904         2.888001        -0.159928
 H         0.584591         2.420140         0.147955
 H         0.465523         0.003118        -1.659379
 H        -0.710904         1.357650        -1.628590
 H         0.888646         1.117536        -3.696692
 H         0.891827        -0.522944         0.666045
