19
Iteration:  1784
 C         3.297150         2.669608        -3.311027
 C         2.092700         2.551637        -2.369025
 C         2.318486         2.554373        -0.857251
 C         1.164025         1.670933        -0.263705
 C         0.516026         0.891084        -1.439252
 C         0.949774         1.701785        -2.719870
 O         0.829102         3.212566        -2.610388
 C         1.651952         0.718865         0.849796
 O         1.034607         0.614344         1.837151
 H         3.711771         3.697829        -3.132804
 H         4.112551         1.950915        -3.255800
 H         2.901261         2.495167        -4.358529
 H         3.255620         2.051853        -0.566534
 H         2.471313         3.506305        -0.285739
 H         0.422766         2.378977         0.133834
 H         0.814641        -0.268541        -1.503627
 H        -0.553856         1.003521        -1.284040
 H         1.086562         1.297083        -3.633164
 H         2.632968         0.180740         0.623502
