19
Iteration:   614charge 0 multiplicity 1
 C         3.126853         2.778797        -3.549934
 C         2.206446         2.370200        -2.456024
 C         2.653803         1.891380        -1.127140
 C         1.398437         1.536055        -0.377247
 C         0.295170         1.101873        -1.404369
 C         0.800759         1.848994        -2.664782
 O         1.122318         3.262771        -2.253804
 C         1.461253         0.639654         0.940484
 O         0.863956         1.031924         1.937748
 H         3.885138         3.494497        -3.089706
 H         3.750402         1.924134        -4.130985
 H         2.545766         3.424577        -4.212028
 H         3.260544         0.929097        -1.220961
 H         3.239747         2.657483        -0.442348
 H         0.986577         2.516520         0.015059
 H         0.271116        -0.021300        -1.613080
 H        -0.686592         1.394920        -0.951831
 H         0.196398         1.911073        -3.583530
 H         2.025719        -0.316114         1.009234
