19
Iteration:  1600charge 0 multiplicity 1
 C         3.463969         2.467968        -2.890707
 C         2.102097         2.439385        -2.285074
 C         2.040284         2.765277        -0.803728
 C         0.948516         1.865031        -0.139905
 C         0.169087         1.292488        -1.333735
 C         0.934057         1.587273        -2.612215
 O         0.918299         3.006906        -2.892342
 C         1.725429         0.707843         0.492285
 O         1.530329         0.445696         1.623046
 H         3.921691         3.403784        -2.836624
 H         4.212415         1.830740        -2.411844
 H         3.229608         2.107505        -3.931612
 H         2.981636         2.599492        -0.276284
 H         1.680291         3.814100        -0.507604
 H         0.361166         2.498368         0.559776
 H        -0.112094         0.292157        -1.241416
 H        -0.726786         1.845316        -1.447255
 H         0.685706         1.159168        -3.561334
 H         2.566518         0.311777        -0.136584
