19
Iteration:  3142charge 0 multiplicity 1
 C         3.326445         2.943243        -3.090138
 C         2.071444         2.635501        -2.329565
 C         2.202703         2.828746        -0.763951
 C         1.175568         1.842899        -0.229145
 C         0.488446         0.921733        -1.402564
 C         1.091099         1.458482        -2.618726
 O         0.722044         2.782824        -2.965752
 C         1.659281         0.671204         0.732588
 O         1.129506         0.552995         1.837462
 H         3.639567         4.024880        -3.118265
 H         4.313343         2.475731        -2.739003
 H         3.125970         2.798607        -4.239185
 H         3.183651         2.435221        -0.476817
 H         2.060750         3.819888        -0.429270
 H         0.399359         2.347879         0.194084
 H         0.737968        -0.224217        -1.255576
 H        -0.572039         1.125084        -1.287511
 H         1.398646         0.777096        -3.458115
 H         2.464997         0.032283         0.310923
