19
Iteration:  3113charge 0 multiplicity 1
 C         3.356962         2.798435        -3.119240
 C         2.077275         2.554607        -2.301416
 C         1.975272         2.824482        -0.796499
 C         0.984809         1.815746        -0.227914
 C         0.436891         0.965111        -1.439225
 C         1.155968         1.458577        -2.607311
 O         0.843354         2.904992        -2.940428
 C         1.677714         0.782296         0.720941
 O         1.338823         0.489858         1.851671
 H         3.436433         3.904106        -2.936873
 H         4.253690         2.356838        -2.690062
 H         3.236730         2.649645        -4.126689
 H         2.960245         2.524258        -0.209119
 H         1.716219         3.855558        -0.546446
 H         0.048557         2.298219         0.218000
 H         0.686372        -0.041952        -1.296946
 H        -0.585105         1.285294        -1.524077
 H         1.368256         0.817970        -3.401906
 H         2.554414         0.247531         0.212026
