19
Iteration:  2216charge 0 multiplicity 1
 C         3.407766         2.528406        -2.880416
 C         2.070761         2.458221        -2.285025
 C         2.095839         2.956270        -0.769079
 C         0.958220         1.900421        -0.153708
 C         0.205453         1.163548        -1.354706
 C         1.058749         1.495938        -2.521264
 O         0.846533         2.997992        -3.005754
 C         1.662551         0.738602         0.454065
 O         1.536812         0.399187         1.682211
 H         3.692031         3.604734        -2.944842
 H         4.279153         2.281149        -2.163659
 H         3.385964         1.994364        -3.863780
 H         2.991733         2.872557        -0.166649
 H         1.768789         3.951738        -0.704143
 H         0.376142         2.214714         0.697186
 H        -0.001722         0.056451        -1.261624
 H        -0.739015         1.629574        -1.591733
 H         1.161883         0.803629        -3.396790
 H         2.017010        -0.050688        -0.283731
