19
Iteration:  4761
 C         3.467098         2.875229        -2.484362
 C         2.012017         2.608741        -2.162656
 C         1.368167         3.155310        -0.839767
 C         0.684772         1.852694        -0.207155
 C         0.503060         0.738484        -1.424960
 C         1.404068         1.319410        -2.552596
 O         0.874633         2.610318        -3.080289
 C         1.549726         1.324784         0.936031
 O         1.957960         0.160383         0.993719
 H         3.632598         3.934857        -2.680428
 H         3.973999         2.679434        -1.554453
 H         3.705507         2.329938        -3.336604
 H         1.910128         3.727271        -0.064499
 H         0.515140         3.921957        -1.051565
 H        -0.258408         1.936408         0.333765
 H         0.850800        -0.319621        -0.983315
 H        -0.587950         0.734017        -1.744118
 H         1.765018         0.605088        -3.313115
 H         1.899769         2.207362         1.595366
