19
Iteration:  2038
 C         3.324469         2.803952        -3.098081
 C         2.129811         2.503114        -2.302025
 C         2.222181         2.601686        -0.836510
 C         1.104007         1.731915        -0.282436
 C         0.260510         1.077906        -1.464434
 C         0.999695         1.628663        -2.649906
 O         0.849908         2.964562        -2.835091
 C         1.638284         0.687893         0.756760
 O         1.306894         0.594164         1.861795
 H         3.553154         3.856575        -2.880608
 H         4.262585         2.191133        -2.825321
 H         3.308271         2.551394        -4.192145
 H         3.296620         2.160826        -0.554923
 H         2.321841         3.697598        -0.475403
 H         0.250258         2.273177         0.292182
 H         0.163398        -0.038433        -1.399637
 H        -0.676298         1.554115        -1.592126
 H         1.005606         1.064857        -3.602226
 H         2.425542        -0.059318         0.358068
