19
Iteration:  1352
 C         3.300567         2.896966        -3.266290
 C         2.164333         2.509492        -2.356290
 C         2.447488         2.007924        -0.913399
 C         1.131185         1.536650        -0.337733
 C         0.360186         0.957921        -1.538599
 C         1.001669         1.761477        -2.809659
 O         0.862039         3.178067        -2.542091
 C         1.234384         0.631800         0.894647
 O         1.418732         1.018418         1.968122
 H         3.909299         3.528909        -2.548840
 H         3.745515         1.899646        -3.598052
 H         2.936304         3.623782        -4.105650
 H         3.266941         1.255705        -0.992290
 H         2.831209         2.831749        -0.369260
 H         0.560241         2.456202        -0.025497
 H         0.382307        -0.146258        -1.598066
 H        -0.735063         1.208926        -1.386548
 H         0.761796         1.576763        -3.851957
 H         0.751097        -0.373586         0.635847
