19
Iteration:  1378
 C         3.249468         2.843819        -3.360294
 C         2.213252         2.494567        -2.316606
 C         2.445805         2.225054        -0.802024
 C         1.042161         1.676840        -0.234855
 C         0.295429         1.061987        -1.536030
 C         1.036274         1.717887        -2.732568
 O         0.937098         3.111125        -2.675579
 C         1.109556         0.616986         0.803561
 O         1.522138         0.816430         2.015707
 H         3.776044         3.674912        -2.824544
 H         3.762871         1.955509        -3.532818
 H         2.825453         3.195443        -4.231811
 H         3.324143         1.499599        -0.762800
 H         2.785414         3.225624        -0.370128
 H         0.464793         2.547573        -0.009618
 H         0.353613        -0.017370        -1.674657
 H        -0.771810         1.211782        -1.419982
 H         1.019034         1.302894        -3.806401
 H         0.990857        -0.456126         0.386374
