19
Iteration:  2112charge 0 multiplicity 1
 C         3.381967         2.540437        -2.927836
 C         2.066174         2.549408        -2.279033
 C         2.010492         2.811039        -0.782049
 C         0.979471         1.886773        -0.149574
 C         0.331496         1.158623        -1.393180
 C         1.045047         1.580012        -2.618359
 O         0.855686         3.001498        -3.002562
 C         1.653490         0.746127         0.625913
 O         1.506971         0.408820         1.734576
 H         3.900708         3.486563        -2.906077
 H         3.931468         1.720789        -2.480575
 H         3.423080         2.295816        -4.036989
 H         2.980719         2.471542        -0.434955
 H         1.949653         3.854468        -0.406793
 H         0.178525         2.416612         0.453069
 H         0.406824         0.106371        -1.494820
 H        -0.787245         1.317686        -1.475816
 H         0.976677         1.011125        -3.466764
 H         2.195132         0.099112        -0.145282
