19
Iteration:  4129
 C         3.237418         3.170814        -2.993725
 C         2.029519         2.721815        -2.240902
 C         1.918679         2.896934        -0.738893
 C         0.879351         1.716607        -0.290252
 C         0.993540         0.678049        -1.469943
 C         1.412704         1.389734        -2.659646
 O         0.734780         2.691247        -2.895486
 C         0.995922         1.183563         1.053486
 O         1.631489         0.192000         1.449323
 H         3.749471         4.177912        -2.982874
 H         4.104041         2.372857        -2.853993
 H         3.065366         3.138916        -4.113002
 H         2.938342         2.732753        -0.206591
 H         1.492549         3.967301        -0.529696
 H        -0.132003         2.232812        -0.409287
 H         1.745212        -0.026043        -1.207911
 H         0.096613         0.074969        -1.605277
 H         1.728348         0.932275        -3.595811
 H         0.322206         1.762281         1.742261
