19
Iteration:  4096
 C         3.259314         3.367103        -3.029756
 C         2.081305         2.614766        -2.244788
 C         1.905752         2.880006        -0.722043
 C         0.793208         1.822598        -0.228321
 C         0.810098         0.656585        -1.344048
 C         1.398517         1.327967        -2.527833
 O         0.855888         2.599591        -3.042772
 C         1.103065         1.214744         1.101988
 O         1.604735         0.138127         1.259872
 H         3.334545         4.477386        -2.840583
 H         4.322152         2.894897        -2.870745
 H         3.000226         3.176442        -4.094059
 H         2.960984         2.762376        -0.230178
 H         1.699120         3.993334        -0.444666
 H        -0.247202         2.261716        -0.263004
 H         1.547331        -0.014035        -0.954277
 H        -0.119039         0.172776        -1.530294
 H         1.775860         0.685327        -3.342989
 H         0.719220         1.761394         2.041839
