19
Iteration:  2531charge 0 multiplicity 1
 C         3.034036         3.069613        -3.425567
 C         2.138704         2.617183        -2.366258
 C         2.634743         2.267733        -1.003041
 C         1.345624         1.704726        -0.283823
 C         0.725371         0.731859        -1.383810
 C         1.063956         1.562260        -2.608474
 O         0.788113         2.989978        -2.399408
 C         1.485656         0.829038         0.870281
 O         0.688571         0.785863         1.745124
 H         3.476703         3.973123        -3.287213
 H         3.779449         2.350201        -3.563134
 H         2.592872         3.208970        -4.406182
 H         3.560074         1.684128        -1.004358
 H         2.756984         3.275845        -0.386473
 H         0.798683         2.519126         0.055068
 H         1.470404        -0.106253        -1.384725
 H        -0.247435         0.418964        -1.313121
 H         1.124091         1.229507        -3.615849
 H         2.468187         0.263361         0.831600
