19
Iteration:  4233charge 0 multiplicity 1
 C         3.100627         3.506939        -3.063237
 C         2.163521         2.537050        -2.312385
 C         2.155219         2.663662        -0.781369
 C         0.925990         1.752826        -0.319280
 C         0.852160         0.775921        -1.458833
 C         1.510285         1.350000        -2.647593
 O         0.758642         2.581764        -2.876979
 C         1.004180         1.223344         1.117213
 O         1.480589         0.201604         1.515016
 H         2.680252         4.515398        -2.880698
 H         4.125344         3.543169        -2.725447
 H         3.041125         3.225406        -4.083986
 H         3.132050         2.012750        -0.443474
 H         2.022750         3.655463        -0.460442
 H         0.020515         2.451367        -0.247939
 H         1.337352        -0.211003        -1.110604
 H        -0.155150         0.413966        -1.816230
 H         1.515742         0.794635        -3.589221
 H         0.489064         1.927975         1.756071
