19
Iteration:   718
 C         3.399647         2.465872        -3.249487
 C         2.124357         2.267336        -2.352999
 C         2.352351         2.241717        -0.935089
 C         1.050875         1.748291        -0.229390
 C         0.108273         1.372676        -1.406443
 C         0.754561         1.810013        -2.699186
 O         1.107443         3.300133        -2.596761
 C         1.426588         0.616887         0.700288
 O         1.459296         0.710201         1.888964
 H         3.833799         3.401149        -2.857649
 H         4.197269         1.758945        -3.232166
 H         3.032494         2.542211        -4.377236
 H         3.271841         1.666232        -0.715006
 H         2.564032         3.187501        -0.514016
 H         0.629134         2.507902         0.400609
 H         0.109045         0.314151        -1.430414
 H        -0.925246         1.668503        -1.312779
 H         0.516351         1.464146        -3.702541
 H         1.684046        -0.322307         0.177989
