19
Iteration:  4387charge 0 multiplicity 1
 C         3.089760         3.460559        -2.983269
 C         2.096715         2.581446        -2.217263
 C         1.900045         2.898861        -0.759475
 C         1.002490         1.759236        -0.299049
 C         0.728788         0.688408        -1.499973
 C         1.517789         1.331138        -2.649649
 O         0.835508         2.545938        -2.974657
 C         1.570081         1.167112         1.028912
 O         1.167237         0.160180         1.510367
 H         2.807920         4.648767        -2.844231
 H         4.107207         3.302129        -2.354862
 H         3.059274         3.100247        -3.983436
 H         2.860725         2.828883        -0.304623
 H         1.660633         3.850518        -0.436809
 H        -0.015053         2.065618        -0.001816
 H         0.962596        -0.283730        -1.248067
 H        -0.358300         0.718049        -1.740589
 H         2.077959         0.767820        -3.444412
 H         2.491935         1.639287         1.359736
