19
Iteration:  2962
 C         3.460247         2.730371        -2.730784
 C         2.015026         2.488196        -2.181122
 C         1.826858         2.850675        -0.706425
 C         0.773056         1.780467        -0.302234
 C         0.141223         1.174297        -1.489723
 C         1.137648         1.406912        -2.594402
 O         0.937912         2.771960        -2.994583
 C         1.754841         0.736002         0.468798
 O         1.741416         0.633467         1.665281
 H         3.426844         3.838376        -2.880283
 H         4.266380         2.380512        -2.043958
 H         3.498258         2.191150        -3.647177
 H         2.604182         2.788028        -0.097382
 H         1.589194         3.950256        -0.650394
 H         0.084642         2.161638         0.502377
 H        -0.134405         0.138220        -1.258211
 H        -0.862292         1.621245        -1.824013
 H         1.294812         0.754174        -3.352309
 H         2.641988         0.291257        -0.030057
