19
Iteration:  4902charge 0 multiplicity 1
 C         3.458924         2.881773        -2.298182
 C         2.027871         2.456613        -2.075214
 C         1.357499         3.053804        -0.818782
 C         0.521795         1.926542        -0.186943
 C         0.236291         0.858229        -1.383119
 C         1.328399         1.210609        -2.329717
 O         1.048062         2.521348        -3.060755
 C         1.471185         1.306734         0.810803
 O         2.258968         0.398860         0.577430
 H         3.537431         3.890742        -2.808580
 H         4.152495         2.839092        -1.352581
 H         3.746220         2.143593        -3.048828
 H         2.003794         3.535823        -0.005003
 H         0.601348         3.922201        -1.120652
 H        -0.385251         2.233474         0.334842
 H         0.485494        -0.169534        -1.000213
 H        -0.730551         0.911248        -1.896853
 H         2.003395         0.489246        -2.894159
 H         1.455383         1.736713         1.877293
