19
Iteration:  1302charge 0 multiplicity 1
 C         3.274529         2.934167        -3.239895
 C         2.121635         2.399903        -2.337249
 C         2.468699         1.773194        -0.970425
 C         1.041930         1.400245        -0.469088
 C         0.421122         0.824228        -1.733223
 C         0.813416         1.839631        -2.716118
 O         0.994556         3.277295        -2.194023
 C         1.337733         0.650633         0.800443
 O         1.301928         1.346247         1.923448
 H         3.771605         3.764568        -2.715510
 H         3.877124         2.054756        -3.383212
 H         2.767292         3.249157        -4.083936
 H         3.102481         0.875997        -1.184733
 H         3.105242         2.455088        -0.344838
 H         0.474529         2.303536        -0.272554
 H         0.927668        -0.183275        -1.912338
 H        -0.655744         0.726322        -1.672671
 H         0.728122         1.777407        -3.830330
 H         1.977397        -0.218089         0.774313
