19
Iteration:  2392
 C         3.337387         2.766490        -3.124167
 C         2.095994         2.511094        -2.333596
 C         2.135640         2.788032        -0.784801
 C         1.116880         1.781314        -0.107936
 C         0.362633         1.189709        -1.414878
 C         0.976025         1.544922        -2.709119
 O         0.899613         2.971354        -2.951351
 C         1.675514         0.656006         0.701582
 O         1.256853         0.417525         1.871667
 H         3.464294         3.852412        -3.377136
 H         4.119737         2.253154        -2.511626
 H         3.345796         2.184776        -4.134958
 H         3.175878         2.583919        -0.537983
 H         1.939708         3.798713        -0.564440
 H         0.452467         2.294451         0.544271
 H         0.356560         0.085413        -1.419979
 H        -0.643688         1.571758        -1.220371
 H         0.933521         0.837397        -3.501535
 H         2.520422         0.073710         0.304456
