19
Iteration:  3684
 C         3.432767         2.927570        -2.628989
 C         2.020258         2.539272        -2.126885
 C         1.681884         2.826108        -0.760971
 C         0.603449         1.698848        -0.314404
 C         0.653171         0.654930        -1.597394
 C         1.264514         1.447228        -2.710721
 O         0.820577         2.866349        -2.955370
 C         1.044691         0.890932         0.927805
 O         2.227566         0.769223         1.354997
 H         3.702843         3.923383        -2.786648
 H         4.108597         2.428942        -2.036688
 H         3.677424         2.483881        -3.670915
 H         2.546709         2.480253        -0.092281
 H         1.158238         3.779798        -0.728244
 H        -0.300463         2.128060        -0.019078
 H         1.292969        -0.193511        -1.356227
 H        -0.387950         0.255707        -1.878941
 H         1.488556         0.839463        -3.663023
 H         0.132091         0.504825         1.388661
