19
Iteration:  1135
 C         3.400360         2.311308        -3.269461
 C         2.135218         2.509051        -2.391676
 C         2.373736         2.593748        -0.868077
 C         1.042838         1.896282        -0.183100
 C         0.255073         1.167434        -1.290581
 C         0.838444         1.829941        -2.618778
 O         0.948047         3.248034        -2.750331
 C         1.586528         0.788679         0.725174
 O         1.204370         0.339848         1.812464
 H         4.049502         3.185427        -3.152762
 H         3.976296         1.506466        -3.035074
 H         3.053693         2.297416        -4.372142
 H         3.370036         2.127042        -0.677018
 H         2.558669         3.587381        -0.545359
 H         0.527657         2.672515         0.409008
 H         0.777657         0.190777        -1.413516
 H        -0.869197         1.180739        -1.118940
 H         0.811449         1.177974        -3.482135
 H         2.282010         0.132778         0.190153
