19
Iteration:  1412charge 0 multiplicity 1
 C         3.357351         2.628444        -3.222541
 C         2.141791         2.440314        -2.345377
 C         2.296388         2.467415        -0.829198
 C         0.958496         1.746898        -0.239239
 C         0.282243         1.107713        -1.482750
 C         0.933527         1.744185        -2.689692
 O         0.966592         3.120509        -2.667994
 C         1.237051         0.587051         0.740839
 O         1.600360         0.709624         1.879507
 H         3.671003         3.658966        -3.129873
 H         4.228862         2.131867        -2.847047
 H         3.248533         2.435458        -4.241256
 H         3.249006         1.965227        -0.535631
 H         2.393310         3.589867        -0.564786
 H         0.329016         2.507149         0.210667
 H         0.536864         0.055872        -1.490442
 H        -0.788552         1.216700        -1.428209
 H         0.938425         1.517412        -3.771223
 H         1.219768        -0.403698         0.271975
