19
Iteration:  2457
 C         3.273474         2.829007        -3.297776
 C         2.224598         2.487748        -2.266010
 C         2.325803         2.539838        -0.810864
 C         1.079349         1.810794        -0.203407
 C         0.481896         0.916712        -1.459272
 C         1.045925         1.656459        -2.658719
 O         0.737474         3.028391        -2.811452
 C         1.587549         0.888915         0.890169
 O         1.114605         0.455414         1.858417
 H         3.870577         3.719438        -3.187363
 H         4.022668         2.058119        -3.481995
 H         2.778842         2.966545        -4.312820
 H         3.177416         1.861168        -0.567495
 H         2.443864         3.554973        -0.423281
 H         0.206051         2.397786        -0.012270
 H         0.871874        -0.091345        -1.618533
 H        -0.579702         1.001345        -1.421687
 H         1.219577         1.163342        -3.596652
 H         2.689642         0.685598         0.585256
