19
Iteration:  3968charge 0 multiplicity 1
 C         3.305233         3.180648        -2.914648
 C         1.990706         2.707558        -2.259502
 C         1.717859         3.056053        -0.755311
 C         0.854615         1.780918        -0.283362
 C         0.920969         0.668973        -1.386630
 C         1.449436         1.348087        -2.543523
 O         0.789924         2.597328        -2.997891
 C         1.348606         1.280533         1.099632
 O         1.496535         0.080540         1.259042
 H         3.391895         4.282974        -2.869710
 H         4.056667         2.543241        -2.429514
 H         3.188369         2.842093        -4.091787
 H         2.556678         3.100006        -0.130299
 H         1.097599         3.884477        -0.783582
 H        -0.180667         2.142489        -0.330599
 H         1.538828        -0.241888        -1.063923
 H        -0.156273         0.240276        -1.491694
 H         1.778782         0.761052        -3.397165
 H         1.671744         1.910604         1.938491
