19
Iteration:    95
 C         3.246404         2.497863        -3.443360
 C         2.218531         2.449825        -2.361756
 C         2.621947         2.322082        -0.854283
 C         1.359005         1.868409        -0.221157
 C         0.424095         1.130336        -1.166389
 C         0.863452         1.760164        -2.472622
 O         0.933070         3.268122        -2.539512
 C         1.512361         1.148745         1.030764
 O         0.759136         0.182618         1.218247
 H         3.732478         3.545865        -3.312773
 H         4.056786         1.750075        -3.317110
 H         2.830226         2.463295        -4.406005
 H         3.465204         1.488366        -0.764340
 H         2.952289         3.260662        -0.328648
 H         0.823142         2.804144         0.100278
 H         0.530427        -0.090665        -1.233455
 H        -0.663104         1.391013        -0.937405
 H         0.544124         1.267966        -3.498603
 H         2.259628         1.389708         1.727954
