19
Iteration:   479charge 0 multiplicity 1
 C         3.124641         2.347962        -3.676405
 C         2.183055         2.354000        -2.426601
 C         2.687254         2.228737        -0.978592
 C         1.404102         1.964148        -0.093537
 C         0.356327         1.471839        -1.102818
 C         0.738433         1.946534        -2.486912
 O         1.081077         3.320963        -2.604942
 C         1.551250         0.686474         0.856495
 O         0.751253         0.340445         1.713985
 H         3.644631         3.342114        -3.782146
 H         3.976985         1.696013        -3.530187
 H         2.652996         2.306017        -4.765962
 H         3.305734         1.394337        -0.864552
 H         3.535159         2.845589        -0.725646
 H         1.069080         2.704127         0.606190
 H         0.399515         0.422485        -1.061179
 H        -0.667479         1.740076        -0.909975
 H         0.378037         1.501101        -3.374388
 H         2.404278         0.092416         0.606902
