19
Iteration:  1924
 C         3.186586         3.036928        -3.279758
 C         2.080998         2.574727        -2.356436
 C         2.587739         2.075059        -1.000458
 C         1.232746         1.474934        -0.425116
 C         0.681592         0.764739        -1.614498
 C         0.868565         1.739480        -2.758456
 O         0.835045         3.088396        -2.367146
 C         1.411194         0.708541         0.937030
 O         0.965771         1.068510         1.975304
 H         3.618520         3.984700        -2.793873
 H         3.904500         2.257049        -3.428465
 H         2.692030         3.319204        -4.265719
 H         3.218465         1.150021        -1.147768
 H         3.231996         2.721890        -0.390119
 H         0.537465         2.243120        -0.162026
 H         1.433512         0.097880        -1.980421
 H        -0.299290         0.160481        -1.494011
 H         0.571483         1.686288        -3.890359
 H         2.238541         0.009397         0.851579
