19
Iteration:  2982charge 0 multiplicity 1
 C         3.439843         2.797943        -2.877214
 C         2.134781         2.446976        -2.145801
 C         1.795173         2.833333        -0.709672
 C         0.809905         1.735729        -0.121622
 C         0.102428         1.099581        -1.475630
 C         1.103366         1.466215        -2.577933
 O         1.024670         2.763058        -3.062212
 C         1.710394         0.842581         0.503254
 O         1.712354         0.586530         1.663976
 H         3.548824         3.966286        -2.867429
 H         4.253397         2.283486        -2.259834
 H         3.318555         2.433444        -3.826822
 H         2.685211         2.860771        -0.053238
 H         1.298101         3.777482        -0.605614
 H        -0.030655         2.172055         0.585816
 H        -0.326624         0.131059        -1.464236
 H        -0.849022         1.623686        -1.768267
 H         1.395269         0.797591        -3.308922
 H         2.355731         0.294754        -0.182923
