19
Iteration:  2796
 C         3.405635         2.739499        -2.985930
 C         1.992009         2.615589        -2.167751
 C         1.869037         2.868521        -0.730442
 C         0.939991         1.628146        -0.200789
 C         0.270638         1.123048        -1.549550
 C         1.166410         1.509647        -2.725736
 O         0.937759         2.862833        -2.993106
 C         1.600443         0.529701         0.650604
 O         1.613807         0.726727         1.865626
 H         3.673248         3.798917        -3.236337
 H         4.323304         2.300274        -2.506039
 H         3.428228         2.235322        -3.958074
 H         2.781028         2.770659        -0.206970
 H         1.563586         3.924880        -0.272548
 H         0.144715         2.113888         0.546434
 H         0.144671         0.017905        -1.484903
 H        -0.833059         1.380701        -1.796535
 H         1.454406         0.817072        -3.616088
 H         2.145683        -0.347134         0.115913
