19
Iteration:  4507charge 0 multiplicity 1
 C         2.981047         3.583759        -3.111173
 C         2.124886         2.605464        -2.351531
 C         2.201246         2.693560        -0.815955
 C         1.066275         1.744863        -0.336970
 C         1.098466         0.608800        -1.420763
 C         1.467199         1.371244        -2.705108
 O         0.752192         2.589423        -2.803252
 C         1.063110         1.284724         1.130964
 O         1.152648         0.121446         1.543200
 H         3.153878         4.496094        -2.564976
 H         3.988681         3.142158        -3.198973
 H         2.516014         3.730605        -3.992617
 H         3.171359         2.251624        -0.484330
 H         2.328144         3.724614        -0.389976
 H         0.234069         2.464579        -0.471791
 H         1.836282        -0.096708        -1.042199
 H         0.194625         0.014017        -1.644217
 H         1.674882         0.702670        -3.581570
 H         0.960395         2.065146         1.879468
