19
Iteration:   978
 C         3.436410         2.122851        -3.073532
 C         2.196520         2.337048        -2.211019
 C         2.119712         2.892878        -0.760693
 C         1.031451         2.006780        -0.095937
 C        -0.021860         1.498288        -1.156680
 C         0.767824         1.748530        -2.517074
 O         1.115871         3.080542        -2.891690
 C         1.786694         0.766755         0.437116
 O         1.408895         0.235040         1.476334
 H         4.135072         2.931249        -3.045599
 H         4.014706         1.251746        -2.573228
 H         3.154502         1.764803        -3.983948
 H         3.034333         3.095085        -0.238927
 H         1.702249         3.878716        -0.881855
 H         0.419389         2.513428         0.610244
 H        -0.155596         0.398055        -0.953129
 H        -1.035614         1.961018        -1.114788
 H         0.618055         1.121547        -3.391790
 H         2.499160         0.168167        -0.226040
