19
Iteration:  2951charge 0 multiplicity 1
 C         3.425661         2.681306        -2.675454
 C         2.108186         2.479113        -2.195908
 C         1.790769         2.866385        -0.786566
 C         0.822431         1.807208        -0.168982
 C         0.187763         1.096879        -1.475364
 C         1.113599         1.448086        -2.625081
 O         0.877072         2.825032        -3.035842
 C         1.733977         0.752595         0.462189
 O         1.752377         0.629638         1.681025
 H         3.700564         3.742437        -2.910668
 H         4.078859         2.414612        -1.813648
 H         3.676859         2.189546        -3.587364
 H         2.665644         2.763144        -0.295225
 H         1.368357         3.906349        -0.696905
 H         0.006493         2.125940         0.520489
 H        -0.051440         0.030553        -1.340162
 H        -0.762657         1.597381        -1.879051
 H         1.312482         0.877335        -3.435336
 H         2.330513         0.107125        -0.281322
