19
Iteration:  2330charge 0 multiplicity 1
 C         3.353434         2.635252        -2.977859
 C         2.093433         2.431606        -2.285555
 C         2.075965         2.826273        -0.831893
 C         1.056691         1.834280        -0.193516
 C         0.246687         1.158881        -1.345104
 C         1.028817         1.554840        -2.556757
 O         0.920755         2.957186        -2.861880
 C         1.600184         0.751673         0.492249
 O         1.443078         0.437567         1.700436
 H         3.731894         3.649820        -2.680501
 H         4.154908         2.002041        -2.603186
 H         3.293759         2.595892        -4.053459
 H         3.043381         2.930768        -0.255316
 H         1.632608         3.848595        -0.783062
 H         0.376957         2.474797         0.453268
 H         0.191780         0.074557        -1.281585
 H        -0.891847         1.327446        -1.488875
 H         1.266353         0.773126        -3.307642
 H         2.491090         0.298810        -0.008649
