19
Iteration:  3709charge 0 multiplicity 1
 C         3.362635         3.002507        -2.744043
 C         2.053417         2.596524        -2.081081
 C         1.765936         2.820581        -0.646665
 C         0.685321         1.733146        -0.351325
 C         0.696312         0.663882        -1.481075
 C         1.298493         1.436709        -2.642572
 O         0.836076         2.735380        -2.940426
 C         0.942645         0.900513         0.900833
 O         2.125264         0.737056         1.181473
 H         3.722459         4.019298        -2.725355
 H         4.118551         2.294064        -2.302108
 H         3.409389         2.731990        -3.801835
 H         2.540162         2.475288        -0.098602
 H         1.239937         3.767718        -0.415107
 H        -0.295743         2.306951        -0.256085
 H         1.317521        -0.170744        -1.216952
 H        -0.299384         0.306078        -1.570666
 H         1.758392         0.751732        -3.402307
 H         0.045999         0.724456         1.489182
