19
Iteration:  3045
 C         3.427326         2.683532        -2.824596
 C         2.011641         2.620765        -2.309065
 C         1.834614         2.889148        -0.711455
 C         0.984961         1.755954        -0.229797
 C         0.324918         1.068064        -1.453675
 C         1.076239         1.510788        -2.600635
 O         0.812197         2.815070        -3.075969
 C         1.777374         0.750011         0.580062
 O         1.506689         0.561027         1.763726
 H         3.937617         3.641664        -2.670116
 H         4.037620         2.017689        -2.195126
 H         3.704857         2.492766        -3.804552
 H         2.975579         2.892364        -0.311691
 H         1.311805         3.775955        -0.601570
 H         0.401647         2.134655         0.588501
 H         0.609013        -0.007035        -1.454362
 H        -0.685768         1.390774        -1.586231
 H         1.484432         0.802100        -3.345925
 H         2.443665         0.112736        -0.012989
