19
Iteration:  2560
 C         2.971778         3.200281        -3.580001
 C         2.206994         2.489243        -2.422659
 C         2.666839         2.171635        -0.907527
 C         1.424937         1.641483        -0.220430
 C         0.894368         0.802384        -1.493190
 C         1.029235         1.639216        -2.711991
 O         0.777560         2.999154        -2.417871
 C         1.455867         0.780316         0.996689
 O         0.576616         0.822053         1.890866
 H         2.887377         4.381261        -3.478313
 H         4.014214         2.730298        -3.711217
 H         2.488435         3.005165        -4.544873
 H         3.525290         1.450483        -0.764612
 H         3.095684         2.999769        -0.424564
 H         0.690701         2.439867         0.038814
 H         1.349197        -0.192016        -1.668343
 H        -0.210916         0.498991        -1.363422
 H         0.863981         1.284197        -3.727910
 H         2.376136         0.188255         1.199066
