19
Iteration:  3801
 C         3.238781         3.330448        -2.994661
 C         2.066953         2.626902        -2.278349
 C         2.000284         2.612662        -0.693446
 C         0.831804         1.733348        -0.373618
 C         0.808731         0.608194        -1.511210
 C         1.352307         1.434207        -2.655761
 O         0.791642         2.716615        -2.928509
 C         0.905807         1.136293         1.070326
 O         1.817323         0.418081         1.540147
 H         3.026618         4.438328        -3.043983
 H         4.125516         3.011649        -2.409801
 H         3.472929         3.101187        -4.108304
 H         2.842288         2.039871        -0.504696
 H         1.946515         3.595143        -0.238519
 H        -0.148361         2.271984        -0.508676
 H         1.556961        -0.195421        -1.236718
 H        -0.206279         0.151747        -1.704545
 H         1.746409         0.911376        -3.547209
 H         0.022727         1.331252         1.776772
