19
Iteration:   827
 C         3.410603         2.181947        -2.963520
 C         2.086820         2.344052        -2.230988
 C         2.196884         2.585210        -0.742882
 C         1.006569         1.873701        -0.151005
 C        -0.038426         1.572133        -1.387176
 C         0.769739         1.813494        -2.628319
 O         1.084581         3.180283        -2.925598
 C         1.481500         0.557610         0.500906
 O         1.750621         0.489360         1.693217
 H         3.861469         3.152959        -3.134640
 H         4.005027         1.570742        -2.393895
 H         3.411779         1.971101        -4.040675
 H         3.172465         2.245888        -0.253610
 H         2.069799         3.631850        -0.553738
 H         0.501678         2.373480         0.679010
 H        -0.364893         0.550916        -1.253142
 H        -0.840359         2.317700        -1.415495
 H         0.613383         1.207200        -3.491104
 H         1.831136        -0.255724        -0.163117
