19
Iteration:  1044
 C         3.355039         2.446650        -3.124792
 C         2.105414         2.402562        -2.291139
 C         2.339119         2.801376        -0.897077
 C         1.102958         1.991971        -0.051144
 C         0.126886         1.626524        -1.148606
 C         0.826870         1.643641        -2.511422
 O         1.028554         2.957180        -3.045736
 C         1.697196         0.636241         0.636562
 O         1.226851         0.165835         1.618927
 H         3.832266         3.410687        -3.155586
 H         4.173612         1.796524        -2.660861
 H         3.242545         2.110697        -4.078074
 H         3.236891         2.476863        -0.356642
 H         2.424534         3.862278        -0.704576
 H         0.795427         2.610799         0.787603
 H        -0.297221         0.611558        -0.973369
 H        -0.643501         2.422307        -1.219326
 H         0.686894         0.808900        -3.191596
 H         2.389540        -0.065388         0.051944
