19
Iteration:    61
 C         3.244663         2.611769        -3.485509
 C         2.145567         2.433711        -2.450979
 C         2.562576         2.364172        -0.917811
 C         1.398888         1.940233        -0.134280
 C         0.574689         1.175994        -1.213586
 C         0.967536         1.728583        -2.569505
 O         0.936246         3.242492        -2.579175
 C         1.511470         0.867340         1.014521
 O         0.591964         0.256440         1.515688
 H         3.808637         3.517994        -3.096947
 H         3.987279         1.789428        -3.572047
 H         2.859245         2.921148        -4.451956
 H         3.474482         1.614347        -0.782729
 H         2.928469         3.374556        -0.597212
 H         0.793278         2.835275         0.126100
 H         0.775408         0.003889        -0.991276
 H        -0.532342         1.305151        -1.017963
 H         0.590438         1.306995        -3.553936
 H         2.547752         0.499490         1.073701
