19
Iteration:  3557
 C         3.434898         2.896828        -2.713215
 C         1.979534         2.603870        -2.241047
 C         1.662284         2.785356        -0.755337
 C         0.825144         1.605852        -0.286643
 C         0.384031         0.864437        -1.596819
 C         1.171733         1.489452        -2.710452
 O         0.879975         2.842091        -3.141775
 C         1.472612         0.592667         0.757885
 O         1.918022         0.909169         1.835429
 H         3.832085         3.917306        -2.591812
 H         4.143528         2.281870        -2.032799
 H         3.578293         2.547043        -3.751710
 H         2.579887         2.838303        -0.185788
 H         1.200397         3.762042        -0.301758
 H        -0.139665         1.984880         0.151062
 H         0.824136        -0.209666        -1.614301
 H        -0.681386         0.991426        -1.808755
 H         1.614288         0.866179        -3.572277
 H         1.703332        -0.440110         0.178353
