19
Iteration:  4240charge 0 multiplicity 1
 C         3.121248         3.495795        -3.111546
 C         2.171260         2.588893        -2.269238
 C         2.120313         2.661563        -0.781584
 C         0.897632         1.749037        -0.333915
 C         0.890816         0.698897        -1.375116
 C         1.450591         1.340601        -2.661529
 O         0.785168         2.607101        -2.897303
 C         1.004511         1.254299         1.132709
 O         1.469403         0.155640         1.472965
 H         2.634038         4.479624        -2.996461
 H         4.143757         3.401181        -2.741633
 H         3.073157         3.275997        -4.318825
 H         2.991778         2.336979        -0.358218
 H         2.100974         3.687782        -0.329434
 H         0.170415         2.586268        -0.263871
 H         1.520158        -0.051329        -1.018044
 H        -0.127794         0.514336        -1.723492
 H         1.658196         0.794085        -3.596781
 H         0.463514         1.877781         1.957201
