19
Iteration:  2477
 C         3.235940         2.922442        -3.355160
 C         2.088495         2.602840        -2.440249
 C         2.320944         2.471999        -0.893170
 C         1.124676         1.717372        -0.232239
 C         0.569647         0.917734        -1.410944
 C         1.050376         1.544107        -2.719858
 O         0.855093         3.094358        -2.749970
 C         1.649393         0.845388         1.018636
 O         0.966408         0.496455         1.915080
 H         3.916992         3.565886        -2.945638
 H         3.858238         2.072779        -3.505413
 H         2.904622         3.269660        -4.345557
 H         3.198662         1.771469        -0.793761
 H         2.483435         3.472826        -0.336824
 H         0.435611         2.392225         0.202478
 H         1.027814        -0.124581        -1.336726
 H        -0.461881         0.792214        -1.361629
 H         0.833545         1.098175        -3.670749
 H         2.740397         0.589819         0.887820
