19
Iteration:   525
 C         3.075827         2.504254        -3.648909
 C         2.170946         2.377081        -2.464422
 C         2.730154         2.041586        -1.066129
 C         1.475138         1.712827        -0.234040
 C         0.335797         1.240139        -1.279900
 C         0.792237         1.884221        -2.557558
 O         1.057951         3.338981        -2.290794
 C         1.608412         0.748607         0.951367
 O         0.662158         0.684152         1.715778
 H         3.742777         3.373372        -3.594110
 H         3.791523         1.606524        -3.706783
 H         2.521282         2.734868        -4.610381
 H         3.529343         1.301582        -1.006510
 H         3.400625         2.851386        -0.694767
 H         1.124721         2.553287         0.372974
 H         0.440256         0.270370        -1.669877
 H        -0.646728         1.429257        -0.911796
 H         0.304477         1.806156        -3.436597
 H         2.562620         0.226213         1.103676
