19
Iteration:  1222charge 0 multiplicity 1
 C         3.230414         2.883739        -3.389678
 C         2.196543         2.401814        -2.492115
 C         2.622472         2.015936        -0.967169
 C         1.207626         1.717845        -0.247808
 C         0.426535         1.053106        -1.498483
 C         0.899515         1.764518        -2.703534
 O         0.936444         3.179486        -2.480961
 C         1.198156         0.724750         0.830051
 O         1.166090         0.827804         2.074976
 H         3.623335         3.845889        -2.951604
 H         4.044338         2.187745        -3.588169
 H         2.776405         3.145699        -4.456728
 H         3.210248         1.008968        -1.051876
 H         3.215871         2.739266        -0.424545
 H         0.744085         2.697256        -0.062193
 H         0.844719         0.019237        -1.388477
 H        -0.701866         0.853799        -1.584603
 H         0.457199         1.566544        -3.670289
 H         1.339008        -0.291386         0.356769
