19
Iteration:  2426charge 0 multiplicity 1
 C         3.335080         2.778011        -3.186984
 C         2.107104         2.487357        -2.339902
 C         2.183443         2.740561        -0.901539
 C         1.133791         1.834822        -0.144352
 C         0.480481         0.959069        -1.370369
 C         1.046452         1.540146        -2.620936
 O         0.827585         3.036120        -2.754936
 C         1.643291         0.738730         0.662191
 O         1.141316         0.506169         1.802805
 H         3.801841         3.847256        -3.054507
 H         4.218443         2.186681        -2.764521
 H         3.084536         2.407202        -4.259968
 H         3.156597         2.333047        -0.620670
 H         2.203465         3.738604        -0.620152
 H         0.288566         2.358220         0.355725
 H         0.405589        -0.134234        -1.394174
 H        -0.627731         1.182656        -1.177472
 H         0.993263         1.028424        -3.588718
 H         2.381877         0.045861         0.217376
