19
Iteration:  3012charge 0 multiplicity 1
 C         3.444695         2.775006        -2.867266
 C         2.034350         2.507189        -2.250840
 C         1.776748         2.963418        -0.811883
 C         0.907686         1.829003        -0.172677
 C         0.217715         1.104395        -1.470826
 C         1.127067         1.460075        -2.599971
 O         0.970852         2.804067        -3.075079
 C         1.626871         0.746533         0.599301
 O         1.701065         0.455096         1.800199
 H         3.690546         3.809704        -2.612270
 H         4.076366         2.011862        -2.389031
 H         3.408120         2.465131        -3.878946
 H         2.716599         3.310599        -0.138065
 H         1.232630         3.880601        -0.713261
 H         0.129107         2.320502         0.471082
 H         0.262393         0.006698        -1.296546
 H        -0.825508         1.371883        -1.670360
 H         1.413546         0.710219        -3.395275
 H         2.110853        -0.056649        -0.066547
