19
Iteration:   487charge 0 multiplicity 1
 C         3.107700         2.378090        -3.692777
 C         2.184111         2.408037        -2.457343
 C         2.743921         2.164488        -0.952979
 C         1.443781         1.921745        -0.073096
 C         0.322777         1.460446        -1.158744
 C         0.818272         1.928733        -2.448455
 O         1.049157         3.351868        -2.597314
 C         1.540498         0.691258         0.869674
 O         0.725773         0.378949         1.720101
 H         3.583422         3.393646        -3.778998
 H         3.874511         1.628774        -3.640987
 H         2.470160         2.150352        -4.590948
 H         3.380971         1.207192        -1.081403
 H         3.329910         2.975146        -0.476647
 H         1.155184         2.890855         0.364757
 H         0.458922         0.280550        -1.157558
 H        -0.785811         1.589255        -0.976329
 H         0.297636         1.333668        -3.331286
 H         2.462881         0.051900         0.714037
