19
Iteration:  2368
 C         3.375264         2.705900        -3.161420
 C         2.142698         2.591486        -2.297184
 C         2.128115         2.687450        -0.768173
 C         0.908694         1.825791        -0.177405
 C         0.166827         1.178491        -1.404814
 C         1.092307         1.543628        -2.587943
 O         0.920133         2.981481        -3.003796
 C         1.668667         0.767470         0.699221
 O         1.402166         0.326684         1.866187
 H         3.412008         3.765663        -3.226407
 H         4.240765         2.233739        -2.667503
 H         3.298105         2.360831        -4.222258
 H         3.145590         2.403514        -0.454146
 H         1.903879         3.729209        -0.413440
 H         0.315363         2.494811         0.366206
 H         0.102925         0.053188        -1.381657
 H        -0.731205         1.642126        -1.295189
 H         1.259292         0.854381        -3.410054
 H         2.677412         0.532922         0.308565
