19
Iteration:  3414charge 0 multiplicity 1
 C         3.246434         3.076691        -3.179464
 C         2.116124         2.538444        -2.292211
 C         2.102403         2.659839        -0.755509
 C         0.983237         1.646811        -0.272127
 C         0.628215         0.829060        -1.530829
 C         1.243270         1.475336        -2.731650
 O         0.792241         2.869049        -2.932658
 C         1.525190         0.705995         0.820979
 O         1.256486         0.743431         2.029446
 H         3.326334         4.112477        -2.954791
 H         4.243786         2.642155        -3.222794
 H         2.963411         3.009523        -4.165237
 H         3.160805         2.568962        -0.463141
 H         1.961594         3.746685        -0.361314
 H         0.130820         2.149011         0.217009
 H         1.075039        -0.156417        -1.339032
 H        -0.427242         0.763467        -1.599315
 H         1.256268         0.948980        -3.667956
 H         1.958593        -0.159373         0.336718
