19
Iteration:   719charge 0 multiplicity 1
 C         3.411372         2.462023        -3.244537
 C         2.124466         2.267863        -2.350625
 C         2.352440         2.248121        -0.935018
 C         1.051653         1.756631        -0.224344
 C         0.110834         1.379539        -1.412884
 C         0.748879         1.808211        -2.704034
 O         1.099600         3.295216        -2.594144
 C         1.425636         0.616094         0.694003
 O         1.465091         0.706737         1.889784
 H         3.850717         3.372495        -2.839440
 H         4.197327         1.769440        -3.269571
 H         3.036274         2.512230        -4.349656
 H         3.254327         1.652559        -0.737564
 H         2.539697         3.196451        -0.493504
 H         0.601503         2.527609         0.396937
 H         0.082876         0.311497        -1.440426
 H        -0.916501         1.647670        -1.289643
 H         0.519441         1.441907        -3.671577
 H         1.676811        -0.297348         0.137840
