19
Iteration:  2696
 C         3.294749         2.903363        -3.231554
 C         2.120435         2.620496        -2.288102
 C         2.251729         2.648874        -0.842895
 C         1.097817         1.597557        -0.269097
 C         0.456038         0.838628        -1.526326
 C         1.115605         1.589196        -2.622663
 O         0.819985         2.946508        -2.818625
 C         1.509445         0.683721         0.773260
 O         1.211062         0.758817         1.969617
 H         3.846208         3.766021        -2.909996
 H         3.963719         2.041029        -3.319577
 H         2.992571         3.255122        -4.259444
 H         3.200216         2.289283        -0.493982
 H         2.080013         3.633263        -0.167557
 H         0.252024         2.183673         0.229130
 H         0.643802        -0.256668        -1.594797
 H        -0.653841         0.897872        -1.525798
 H         1.332968         1.056352        -3.646726
 H         2.261124        -0.114361         0.401700
