19
Iteration:   640charge 0 multiplicity 1
 C         3.165202         2.694774        -3.526619
 C         2.222905         2.316258        -2.437023
 C         2.662998         1.870153        -1.092378
 C         1.304426         1.721915        -0.320298
 C         0.376683         1.060595        -1.399410
 C         0.768944         1.940718        -2.591145
 O         1.040692         3.315737        -2.312537
 C         1.326902         0.680084         0.822111
 O         1.013995         0.937139         1.955210
 H         3.744176         3.571464        -3.243941
 H         3.847968         1.865860        -3.607456
 H         2.706345         3.015526        -4.453680
 H         3.340807         1.017232        -1.037773
 H         3.113164         2.610705        -0.469231
 H         0.968862         2.703326        -0.010563
 H         0.882847         0.199954        -1.679231
 H        -0.639067         0.853032        -1.057369
 H         0.284481         1.795278        -3.640169
 H         1.505587        -0.454342         0.511267
