19
Iteration:  2860charge 0 multiplicity 1
 C         3.494559         2.725730        -2.716703
 C         2.070239         2.449133        -2.191669
 C         1.826586         2.766879        -0.723695
 C         0.806425         1.729611        -0.269371
 C         0.153102         1.046910        -1.467611
 C         1.087013         1.441128        -2.612988
 O         0.915745         2.875066        -3.026175
 C         1.711005         0.797548         0.479157
 O         1.728517         0.712886         1.677526
 H         3.733280         3.756006        -2.356656
 H         4.211106         1.935587        -2.335589
 H         3.411381         2.932962        -3.812020
 H         2.837957         2.722239        -0.336725
 H         1.347895         3.698001        -0.605682
 H         0.098503         2.215686         0.548004
 H        -0.125288        -0.025669        -1.280971
 H        -0.879011         1.498376        -1.592315
 H         1.337409         0.696810        -3.520641
 H         2.515976         0.289732        -0.075100
