19
Iteration:  3483
 C         3.344530         2.948966        -2.778072
 C         2.087225         2.562629        -2.203564
 C         1.863198         2.612158        -0.708402
 C         0.767552         1.538022        -0.356233
 C         0.368545         0.828061        -1.650238
 C         1.142698         1.414489        -2.734011
 O         0.907846         2.863437        -2.949977
 C         1.608381         0.779791         0.668242
 O         1.696033         0.990681         1.848060
 H         3.399220         4.032918        -2.555462
 H         4.267020         2.396399        -2.509924
 H         3.194040         2.804650        -3.842672
 H         2.824902         2.505338        -0.038874
 H         1.636578         3.630486        -0.260163
 H        -0.041569         1.996204         0.112770
 H         0.612845        -0.242244        -1.648718
 H        -0.747268         0.856829        -1.878593
 H         1.400348         0.837479        -3.660275
 H         2.188505        -0.072299         0.088788
