19
Iteration:  1814
 C         3.248906         2.851988        -3.296227
 C         2.079691         2.498856        -2.461599
 C         2.484845         2.270624        -0.958564
 C         1.123099         1.658723        -0.265166
 C         0.665192         0.927064        -1.485642
 C         0.881350         1.737830        -2.737056
 O         0.832472         3.210789        -2.598492
 C         1.514567         0.730611         0.883890
 O         1.002108         0.690860         2.039206
 H         3.475931         3.953935        -3.282314
 H         4.139233         2.313860        -3.084702
 H         2.966411         2.818523        -4.315621
 H         3.270865         1.418186        -0.986013
 H         2.735402         3.126247        -0.356773
 H         0.518996         2.479068         0.011988
 H         1.200266         0.030015        -1.648109
 H        -0.373772         0.515228        -1.548055
 H         0.787570         1.232074        -3.751074
 H         2.507260         0.204484         0.804357
