19
Iteration:  1912
 C         3.208311         3.137420        -3.331856
 C         2.153308         2.504051        -2.394185
 C         2.556739         1.975596        -1.033818
 C         1.223865         1.516426        -0.339919
 C         0.736131         0.681985        -1.655307
 C         0.883393         1.742231        -2.736645
 O         0.782591         3.150006        -2.342400
 C         1.420061         0.733679         0.905954
 O         0.930406         1.077283         2.030170
 H         3.751250         4.068003        -2.908749
 H         4.048613         2.477948        -3.558668
 H         2.776828         3.483939        -4.294237
 H         3.166061         1.140635        -1.422506
 H         3.152445         2.659415        -0.452004
 H         0.675070         2.407430        -0.173552
 H         1.337496        -0.210876        -1.684350
 H        -0.360748         0.287257        -1.528979
 H         0.421578         1.387764        -3.808640
 H         1.995069        -0.199427         0.916427
