19
Iteration:  2058charge 0 multiplicity 1
 C         3.407785         2.751033        -3.153586
 C         2.076207         2.426201        -2.280438
 C         2.144915         2.693135        -0.754590
 C         1.018939         1.681537        -0.194611
 C         0.223892         1.113689        -1.418216
 C         1.012099         1.527388        -2.736419
 O         0.919333         3.075540        -2.799890
 C         1.694863         0.695443         0.688430
 O         1.339266         0.583487         1.794661
 H         3.783095         3.758955        -3.170869
 H         4.233968         2.089117        -2.838651
 H         3.196913         2.289038        -4.168781
 H         3.057305         2.599814        -0.324219
 H         1.764807         3.724438        -0.600045
 H         0.233052         2.171132         0.471372
 H         0.251003         0.057972        -1.406321
 H        -0.759554         1.509447        -1.367195
 H         1.107145         0.997391        -3.615795
 H         2.622076         0.210639         0.331121
