19
Iteration:  3751charge 0 multiplicity 1
 C         3.287195         3.320402        -2.821737
 C         2.095982         2.570953        -2.199754
 C         1.905245         2.740685        -0.689757
 C         0.736972         1.761824        -0.305855
 C         0.556417         0.728107        -1.470808
 C         1.418013         1.315654        -2.603453
 O         0.890923         2.579454        -2.970884
 C         0.964662         1.031823         0.946927
 O         1.970352         0.530605         1.335632
 H         3.364050         4.343620        -2.574485
 H         4.210944         2.782932        -2.765187
 H         2.927424         3.431101        -3.875331
 H         3.015502         2.431657        -0.276880
 H         1.743874         3.866268        -0.508220
 H        -0.227357         2.256160        -0.253416
 H         0.999421        -0.199053        -1.127624
 H        -0.509619         0.680919        -1.811993
 H         1.658745         0.680647        -3.523968
 H         0.059352         0.924146         1.627510
