19
Iteration:  1196
 C         3.266075         2.711990        -3.398353
 C         2.162397         2.534801        -2.390399
 C         2.503819         2.165012        -0.869081
 C         1.178425         1.648076        -0.276036
 C         0.355866         1.162892        -1.427245
 C         0.947537         1.722169        -2.689728
 O         0.933153         3.202196        -2.608513
 C         1.428508         0.677401         0.835379
 O         1.130488         0.747228         1.973247
 H         3.796429         3.633948        -3.146772
 H         3.988661         1.888599        -3.728477
 H         2.724530         3.001180        -4.274530
 H         3.187301         1.317833        -0.945148
 H         2.917668         2.950207        -0.176444
 H         0.580627         2.488634         0.082038
 H         0.273327         0.095730        -1.348765
 H        -0.671853         1.443535        -1.332315
 H         0.748276         1.375786        -3.706899
 H         1.894498        -0.226398         0.377052
