19
Iteration:   122charge 0 multiplicity 1
 C         3.252742         2.491979        -3.478100
 C         2.232948         2.417529        -2.376372
 C         2.626082         2.316018        -0.908407
 C         1.230763         2.019588        -0.199175
 C         0.303801         1.279635        -1.291574
 C         0.871031         1.801267        -2.633160
 O         1.048739         3.207104        -2.475275
 C         1.298712         1.127152         1.119906
 O         1.030377        -0.011016         1.378251
 H         3.645405         3.478740        -3.470265
 H         4.062218         1.764358        -3.372058
 H         2.746515         2.228466        -4.492449
 H         3.192608         1.462291        -0.780383
 H         3.241607         3.106315        -0.476663
 H         0.853900         2.915761         0.290167
 H         0.574914         0.328440        -1.188669
 H        -0.749413         1.384830        -1.193830
 H         0.484256         1.559778        -3.562812
 H         1.458169         1.797860         2.031026
