19
Iteration:  1825charge 0 multiplicity 1
 C         3.216304         2.958593        -3.380995
 C         2.147991         2.485393        -2.414684
 C         2.424041         2.219128        -0.969408
 C         1.211203         1.706574        -0.315338
 C         0.586591         0.823514        -1.500605
 C         0.959934         1.735179        -2.789679
 O         0.824686         3.181352        -2.540060
 C         1.511023         0.743973         0.975180
 O         0.981734         0.738910         2.024094
 H         3.384351         3.986840        -2.954195
 H         4.104775         2.418989        -3.135129
 H         3.073003         2.818835        -4.417392
 H         3.195033         1.332184        -0.996907
 H         3.059430         2.965152        -0.500083
 H         0.488843         2.383771         0.047306
 H         1.187097        -0.040333        -1.496901
 H        -0.482481         0.655297        -1.220698
 H         0.765511         1.430760        -3.872070
 H         2.191354        -0.115504         0.597781
