19
Iteration:  3352charge 0 multiplicity 1
 C         3.237590         3.144377        -3.304982
 C         2.044576         2.563046        -2.357569
 C         2.493112         2.469025        -0.925810
 C         1.240577         1.602423        -0.315433
 C         0.832424         0.636617        -1.467616
 C         1.006965         1.530626        -2.760631
 O         0.672487         2.916007        -2.590756
 C         1.557273         0.963935         0.961224
 O         0.808442         0.715998         1.869015
 H         3.278971         4.271836        -3.066386
 H         4.243484         2.819717        -2.818703
 H         2.962703         3.089225        -4.348338
 H         3.463683         1.957069        -0.929828
 H         2.444032         3.459303        -0.477972
 H         0.525236         2.350389        -0.224249
 H         1.677449        -0.114020        -1.514865
 H        -0.136773         0.086019        -1.288561
 H         0.875160         1.094098        -3.789675
 H         2.564249         0.565583         1.098946
