19
Iteration:   947charge 0 multiplicity 1
 C         3.374353         2.117758        -2.881490
 C         2.046269         2.469977        -2.274993
 C         2.172852         2.798340        -0.712575
 C         1.027881         2.014858        -0.115242
 C        -0.001278         1.635455        -1.269546
 C         0.857139         1.698194        -2.593435
 O         1.019177         3.091328        -3.053673
 C         1.756787         0.717798         0.519480
 O         1.541184         0.164736         1.567813
 H         4.201596         2.871621        -2.850745
 H         3.642200         1.149856        -2.278691
 H         3.357514         1.828282        -3.999658
 H         3.254845         2.590658        -0.376164
 H         2.038309         3.867032        -0.589789
 H         0.380129         2.574986         0.604507
 H        -0.430866         0.627352        -0.959218
 H        -0.805318         2.436231        -1.311902
 H         0.769261         0.925379        -3.328875
 H         2.399588         0.212798        -0.185414
