19
Iteration:  1250
 C         3.213836         2.972996        -3.364201
 C         2.188583         2.416082        -2.446041
 C         2.607466         1.938347        -1.048275
 C         1.259976         1.454624        -0.337551
 C         0.381112         0.888940        -1.553420
 C         0.858743         1.838130        -2.686086
 O         1.003727         3.216910        -2.348969
 C         1.203097         0.631994         0.871991
 O         1.171621         1.130644         1.989475
 H         3.542826         3.942299        -2.986272
 H         4.059589         2.207612        -3.243964
 H         2.697163         3.014594        -4.280757
 H         3.242612         1.104728        -1.156814
 H         3.169362         2.677569        -0.395522
 H         0.737370         2.371951         0.014547
 H         0.802533        -0.121981        -1.771075
 H        -0.692859         0.916136        -1.513410
 H         0.535671         1.767927        -3.743279
 H         1.118918        -0.497087         0.647073
