19
Iteration:  2805charge 0 multiplicity 1
 C         3.422066         2.779535        -2.967321
 C         2.099184         2.637182        -2.255955
 C         1.874744         2.831390        -0.719624
 C         0.831539         1.654301        -0.204648
 C         0.272963         1.089815        -1.502611
 C         1.119932         1.486031        -2.653003
 O         0.932106         2.859908        -3.010354
 C         1.583491         0.607589         0.631831
 O         1.661094         0.682978         1.836356
 H         3.830318         3.801329        -3.006196
 H         4.190162         2.267551        -2.305026
 H         3.350356         2.214263        -3.973788
 H         2.875675         2.822943        -0.288249
 H         1.390250         3.784381        -0.564932
 H         0.019405         2.043450         0.574378
 H         0.359749        -0.029915        -1.438563
 H        -0.748290         1.532809        -1.614491
 H         1.460179         0.790433        -3.560784
 H         1.916684        -0.328187         0.044943
