19
Iteration:  3261charge 0 multiplicity 1
 C         2.977935         3.180877        -3.457212
 C         2.109770         2.547375        -2.433917
 C         2.639544         2.436612        -0.913374
 C         1.432903         1.703517        -0.224921
 C         0.999912         0.661758        -1.333000
 C         1.040248         1.526274        -2.628528
 O         0.723223         2.913911        -2.489946
 C         1.557776         0.901761         1.001142
 O         0.521813         0.696194         1.657261
 H         3.394087         4.085548        -3.036337
 H         3.906964         2.613083        -3.590967
 H         2.399102         3.466840        -4.361930
 H         3.510815         1.793290        -0.968627
 H         2.763169         3.501872        -0.532212
 H         0.529704         2.278663        -0.095838
 H         1.616967        -0.225483        -1.550352
 H         0.014770         0.300256        -1.121595
 H         0.811612         1.126952        -3.613959
 H         2.577580         0.412374         1.116359
