19
Iteration:   349charge 0 multiplicity 1
 C         3.300069         2.040001        -3.252956
 C         2.188226         2.339163        -2.295173
 C         2.463663         2.419339        -0.830129
 C         1.099047         1.862815        -0.183443
 C        -0.081402         1.833297        -1.235602
 C         0.721898         1.959570        -2.588735
 O         1.147520         3.294107        -2.647524
 C         1.503751         0.532326         0.475218
 O         1.528282         0.383583         1.702548
 H         4.129581         2.731897        -3.306613
 H         3.715353         1.096789        -2.973921
 H         2.767733         1.919109        -4.276282
 H         3.169885         1.537406        -0.495027
 H         2.648047         3.515818        -0.524229
 H         0.665382         2.512299         0.555365
 H        -0.655713         0.832836        -1.111612
 H        -0.843327         2.631182        -1.060181
 H         0.385325         1.529150        -3.430583
 H         1.454317        -0.363583        -0.291193
