19
Iteration:   974charge 0 multiplicity 1
 C         3.435819         2.103880        -3.023754
 C         2.181698         2.338765        -2.241582
 C         2.091079         2.871010        -0.773737
 C         1.026578         1.987387        -0.083749
 C        -0.022298         1.493358        -1.153743
 C         0.810679         1.782779        -2.508756
 O         1.111285         3.082233        -2.903731
 C         1.759058         0.782064         0.438045
 O         1.428436         0.235571         1.474353
 H         4.131847         2.963605        -3.100702
 H         3.965978         1.295843        -2.609048
 H         3.168263         1.822142        -4.101776
 H         3.076449         3.022023        -0.315466
 H         1.781916         3.943881        -0.947573
 H         0.407718         2.427295         0.732085
 H        -0.141667         0.447129        -1.017470
 H        -0.944090         2.030027        -1.054545
 H         0.565870         1.076368        -3.354567
 H         2.543363         0.185690        -0.171351
