19
Iteration:   809
 C         3.416064         2.229614        -3.062217
 C         2.181522         2.296751        -2.341244
 C         2.082237         2.639648        -0.817503
 C         0.899932         1.753857        -0.176654
 C         0.013743         1.541707        -1.315400
 C         0.797725         1.818047        -2.649995
 O         1.160645         3.218448        -2.815636
 C         1.512882         0.547041         0.573192
 O         1.725602         0.503450         1.761013
 H         4.050770         3.160538        -2.904622
 H         3.995138         1.328728        -2.624542
 H         3.149005         2.104249        -4.293457
 H         3.139234         2.542827        -0.594149
 H         1.961242         3.765265        -0.613905
 H         0.531899         2.545710         0.556205
 H        -0.471141         0.573225        -1.439443
 H        -0.783593         2.282245        -1.166808
 H         0.498263         1.321167        -3.584344
 H         1.494621        -0.478029         0.049410
