19
Iteration:  2670
 C         3.200451         2.978535        -3.367763
 C         2.174298         2.505590        -2.399031
 C         2.274859         2.539100        -0.851669
 C         1.114240         1.621605        -0.173852
 C         0.650211         0.882974        -1.551675
 C         1.086583         1.603479        -2.824248
 O         0.834781         3.005040        -2.734651
 C         1.546335         0.687350         0.967370
 O         1.048938         0.749541         2.058069
 H         3.706965         3.876535        -2.840038
 H         3.990731         2.239255        -3.628267
 H         2.745929         3.451342        -4.278382
 H         3.213589         1.951351        -0.495893
 H         2.115471         3.444962        -0.455351
 H         0.312725         2.121226         0.269806
 H         0.991295        -0.214379        -1.593390
 H        -0.417711         0.879162        -1.562897
 H         1.092349         1.216176        -3.794967
 H         2.109023        -0.242782         0.661034
