19
Iteration:  4715
 C         3.309948         3.172241        -2.724899
 C         1.983312         2.559758        -2.167290
 C         1.539248         3.057013        -0.713517
 C         0.705097         1.864242        -0.173386
 C         0.492454         0.861593        -1.414188
 C         1.408964         1.299827        -2.511189
 O         0.987582         2.479733        -3.248636
 C         1.554416         1.244099         1.061255
 O         1.805903         0.060934         1.129702
 H         3.347215         4.247272        -2.666599
 H         4.063446         2.902035        -1.936216
 H         3.475573         2.955931        -3.710342
 H         2.338652         3.301688        -0.095694
 H         0.974716         4.023781        -0.743784
 H        -0.254325         2.251573         0.089152
 H         0.727122        -0.218525        -1.070917
 H        -0.559919         0.929774        -1.878878
 H         2.097909         0.722383        -3.176636
 H         1.762996         2.098213         1.805385
