19
Iteration:  1277
 C         3.221545         2.944679        -3.327646
 C         2.181407         2.446256        -2.310186
 C         2.518373         1.786698        -0.943088
 C         1.231633         1.326769        -0.458199
 C         0.380489         0.854811        -1.711527
 C         0.895402         1.918267        -2.759599
 O         0.917066         3.230654        -2.209646
 C         1.314169         0.651305         0.888077
 O         1.215791         1.310957         1.908586
 H         3.719460         3.918391        -3.151253
 H         3.865424         2.136194        -3.225613
 H         2.588210         2.853320        -4.242822
 H         3.228385         0.870681        -1.096886
 H         3.030175         2.426224        -0.258209
 H         0.668629         2.222562        -0.162427
 H         0.569389        -0.158271        -2.022124
 H        -0.696678         1.103933        -1.514159
 H         0.906519         1.843393        -3.837746
 H         1.648202        -0.382883         0.852336
