19
Iteration:     8
 C         3.257113         2.794234        -3.307390
 C         2.212908         2.454256        -2.382384
 C         2.518373         2.208228        -0.867889
 C         1.183817         1.634236        -0.269266
 C         0.496781         1.024864        -1.511374
 C         0.959891         1.758005        -2.709066
 O         0.971493         3.257223        -2.536867
 C         1.404523         0.669400         0.803564
 O         0.906536         0.734728         1.910048
 H         3.770568         3.784775        -2.965467
 H         3.938520         1.941096        -3.494793
 H         2.824080         2.873021        -4.274356
 H         3.309787         1.513490        -0.671677
 H         2.916571         3.115333        -0.392073
 H         0.546333         2.423488         0.153090
 H         0.478971        -0.044361        -1.487393
 H        -0.574927         1.347813        -1.462520
 H         0.771652         1.397572        -3.844700
 H         2.130843        -0.115423         0.443278
