19
Iteration:  1441charge 0 multiplicity 1
 C         3.423281         2.466075        -3.018166
 C         2.063060         2.512802        -2.278003
 C         2.155898         2.466088        -0.777047
 C         0.963691         1.632136        -0.276839
 C         0.181222         1.177044        -1.539449
 C         0.893797         1.792739        -2.701350
 O         0.927269         3.189674        -2.783533
 C         1.447365         0.550553         0.674729
 O         1.688502         0.789507         1.845183
 H         3.779987         3.576946        -3.393744
 H         4.243642         2.109537        -2.366610
 H         3.449510         1.979624        -4.037269
 H         3.101422         1.903803        -0.570979
 H         2.273343         3.416625        -0.305860
 H         0.277509         2.245203         0.333236
 H         0.191524         0.065999        -1.670548
 H        -0.880626         1.542182        -1.422994
 H         0.974844         1.450021        -3.730473
 H         1.775960        -0.496473         0.209009
