19
Iteration:  1169
 C         3.332453         2.509187        -3.294924
 C         2.142813         2.442669        -2.373190
 C         2.409427         2.416280        -0.890658
 C         1.197683         1.661287        -0.227523
 C         0.241231         1.224340        -1.429384
 C         0.817853         1.810620        -2.707531
 O         0.976411         3.220836        -2.628215
 C         1.673370         0.646516         0.769918
 O         1.092508         0.647764         1.905317
 H         3.883526         3.436440        -3.105641
 H         3.960930         1.722219        -3.466177
 H         2.862108         2.763981        -4.305121
 H         3.308835         1.867901        -0.591233
 H         2.487670         3.420853        -0.549822
 H         0.487183         2.322646         0.279648
 H         0.299458         0.101902        -1.433091
 H        -0.840078         1.348507        -1.178767
 H         0.863233         1.386853        -3.720994
 H         2.374050        -0.174532         0.521108
