19
Iteration:  1326charge 0 multiplicity 1
 C         3.341611         2.921595        -3.181072
 C         2.146212         2.401896        -2.371753
 C         2.486447         1.881139        -0.985095
 C         1.057419         1.494686        -0.446195
 C         0.392034         0.866112        -1.664024
 C         0.795582         1.848542        -2.752045
 O         0.935807         3.195414        -2.355966
 C         1.328799         0.658780         0.843615
 O         1.360892         1.211385         1.971047
 H         3.814608         3.542463        -2.464381
 H         3.962355         2.018829        -3.570753
 H         2.868905         3.564664        -3.895255
 H         3.193643         1.098445        -1.124617
 H         3.028228         2.691928        -0.373998
 H         0.500114         2.441399        -0.242976
 H         0.960961        -0.135748        -1.817327
 H        -0.671744         0.657826        -1.577067
 H         0.325962         1.808135        -3.774819
 H         1.266598        -0.429991         0.731721
