19
Iteration:  4065
 C         3.212557         3.396673        -2.839441
 C         2.056897         2.527882        -2.204656
 C         1.925326         2.868048        -0.737304
 C         0.796392         1.884854        -0.332231
 C         0.691068         0.716523        -1.480551
 C         1.539752         1.253728        -2.562944
 O         0.787909         2.518471        -2.925786
 C         1.320585         1.327813         1.035869
 O         1.562904         0.145042         1.239872
 H         2.836692         4.379753        -2.835419
 H         4.058596         3.261759        -2.316802
 H         3.216555         2.914945        -3.812869
 H         2.989062         2.578144        -0.381195
 H         1.607552         3.910645        -0.692379
 H        -0.229907         2.342077        -0.080282
 H         0.974021        -0.215636        -1.024193
 H        -0.276807         0.440818        -1.967082
 H         1.923678         0.636302        -3.362733
 H         1.357042         2.007374         1.911382
