19
Iteration:  2336
 C         3.369780         2.641006        -3.001514
 C         2.134037         2.429509        -2.265035
 C         2.059486         2.803850        -0.778344
 C         0.976545         1.889825        -0.174211
 C         0.229137         1.146850        -1.358102
 C         1.054651         1.536264        -2.618434
 O         0.893933         2.965300        -2.881107
 C         1.671383         0.743750         0.553680
 O         1.431462         0.428868         1.697124
 H         3.700116         3.661483        -2.763072
 H         4.335699         2.122228        -2.721923
 H         3.205236         2.537561        -4.142076
 H         3.018817         2.711859        -0.304367
 H         1.710777         3.834351        -0.742748
 H         0.370548         2.496108         0.424419
 H         0.206527         0.032325        -1.226307
 H        -0.757190         1.532768        -1.348556
 H         1.151363         0.818969        -3.421667
 H         2.484763         0.258362        -0.077919
