19
Iteration:  2511charge 0 multiplicity 1
 C         3.183600         3.007327        -3.383822
 C         2.153074         2.478538        -2.387081
 C         2.514361         2.449803        -0.927633
 C         1.347455         1.679582        -0.273567
 C         0.752335         0.829053        -1.386725
 C         0.976403         1.594801        -2.688186
 O         0.696238         2.999577        -2.521611
 C         1.629755         0.811077         0.947261
 O         0.741672         0.719955         1.760215
 H         3.597190         3.822978        -2.918004
 H         3.898412         2.260275        -3.667581
 H         2.740148         3.444768        -4.324448
 H         3.424928         1.739798        -0.836360
 H         2.873892         3.376201        -0.306193
 H         0.484193         2.282258        -0.087587
 H         1.100229        -0.217099        -1.513238
 H        -0.309230         0.762848        -1.221664
 H         0.554429         1.323245        -3.646506
 H         2.495414         0.107974         0.944609
