19
Iteration:  2998
 C         3.421051         2.767790        -2.867966
 C         2.150890         2.473176        -2.189296
 C         1.730342         2.896487        -0.729929
 C         0.761465         1.807124        -0.202717
 C         0.177944         1.181794        -1.412853
 C         1.131080         1.381211        -2.590572
 O         1.014956         2.846684        -3.102505
 C         1.664281         0.712194         0.564896
 O         1.727800         0.513375         1.764479
 H         3.655334         3.799942        -2.871617
 H         4.358215         2.382843        -2.532077
 H         3.347626         2.692165        -4.036386
 H         2.688586         2.873708        -0.165299
 H         1.177558         3.888029        -0.901276
 H         0.051768         2.142167         0.477960
 H         0.179786         0.051214        -1.220640
 H        -0.861137         1.529710        -1.596665
 H         1.255877         0.542864        -3.398039
 H         2.405297         0.302539        -0.179343
