19
Iteration:  1613charge 0 multiplicity 1
 C         3.441637         2.411480        -2.942377
 C         2.080035         2.487310        -2.252047
 C         2.052990         2.786338        -0.777459
 C         0.975207         1.913461        -0.178512
 C         0.114491         1.263059        -1.383012
 C         0.952291         1.632098        -2.593525
 O         0.896385         3.051259        -2.898087
 C         1.697369         0.794297         0.543991
 O         1.537873         0.358646         1.632623
 H         3.831978         3.392882        -3.030780
 H         4.092118         1.864109        -2.232407
 H         3.572544         1.845801        -3.924366
 H         3.081432         2.539473        -0.405283
 H         2.020456         3.927846        -0.765698
 H         0.350893         2.296670         0.667947
 H         0.300923         0.196084        -1.253060
 H        -0.966273         1.440412        -1.369765
 H         1.165288         0.802809        -3.291047
 H         2.406101         0.294403        -0.129638
