19
Iteration:  3036charge 0 multiplicity 1
 C         3.499064         2.707475        -2.803963
 C         2.027159         2.584534        -2.271972
 C         1.805872         2.955433        -0.788276
 C         0.982803         1.753858        -0.190683
 C         0.350702         1.092442        -1.372955
 C         1.160452         1.500284        -2.618651
 O         0.751793         2.834289        -3.135707
 C         1.689832         0.670579         0.561926
 O         1.563300         0.553118         1.752498
 H         3.937211         3.732615        -2.630086
 H         4.027684         1.881482        -2.282436
 H         3.508732         2.379215        -3.771135
 H         2.839374         2.991945        -0.245400
 H         1.405991         3.896368        -0.529388
 H         0.108384         2.133292         0.479906
 H         0.436816         0.019510        -1.181436
 H        -0.693914         1.411325        -1.526061
 H         1.382139         0.811948        -3.355263
 H         2.389161        -0.020823         0.004068
