19
Iteration:  1007
 C         3.340938         2.202046        -3.093135
 C         2.192133         2.408540        -2.222230
 C         2.216963         2.828180        -0.807359
 C         1.045656         2.025394        -0.045425
 C         0.120349         1.551059        -1.169219
 C         0.967677         1.672254        -2.453996
 O         0.975057         3.037262        -2.924491
 C         1.699330         0.747695         0.491637
 O         1.329807         0.207414         1.483205
 H         3.969481         3.098866        -3.260385
 H         3.919730         1.461558        -2.536211
 H         2.984793         1.679305        -4.039844
 H         3.259818         2.688858        -0.465017
 H         1.963716         3.938144        -0.818717
 H         0.341851         2.529194         0.642031
 H        -0.301648         0.600536        -0.920171
 H        -0.736538         2.176373        -1.265959
 H         0.954491         0.972136        -3.334813
 H         2.347942         0.325095        -0.318915
