19
Iteration:  1555
 C         3.441599         2.621266        -3.024646
 C         2.107541         2.468435        -2.245655
 C         2.027911         2.740705        -0.722168
 C         0.884519         1.792833        -0.129681
 C         0.127731         1.379774        -1.354528
 C         0.969549         1.596196        -2.626160
 O         1.003528         2.976770        -3.114144
 C         1.525467         0.628635         0.616728
 O         1.708052         0.410092         1.799849
 H         4.242956         3.253687        -2.602789
 H         3.943586         1.641359        -2.970398
 H         3.150076         2.868875        -4.063644
 H         2.978496         2.549229        -0.205583
 H         1.786604         3.860633        -0.635340
 H         0.187846         2.186978         0.626387
 H        -0.344200         0.436676        -1.295018
 H        -0.635346         2.125608        -1.398268
 H         0.992621         0.854305        -3.455170
 H         1.887947        -0.093771        -0.113021
