19
Iteration:  3894charge 0 multiplicity 1
 C         3.132045         3.383854        -2.997252
 C         2.099355         2.620312        -2.224953
 C         2.066674         2.698725        -0.746934
 C         0.889508         1.760415        -0.350440
 C         0.843788         0.708305        -1.486276
 C         1.456361         1.345967        -2.671048
 O         0.769817         2.628726        -3.006670
 C         0.966845         1.191931         1.094209
 O         1.644193         0.247153         1.544839
 H         2.978019         4.418538        -2.765420
 H         4.102342         2.920919        -2.693171
 H         2.924425         3.436457        -4.085979
 H         3.046017         2.235901        -0.420400
 H         1.810542         3.731284        -0.365101
 H         0.149953         2.492822        -0.249345
 H         1.430434        -0.160539        -1.107908
 H        -0.185081         0.435323        -1.770614
 H         1.623760         0.716088        -3.495153
 H         0.621558         1.828263         1.949833
