19
Iteration:  3169charge 0 multiplicity 1
 C         3.243724         3.072299        -3.206556
 C         2.133109         2.554557        -2.433245
 C         2.208753         2.585772        -0.899308
 C         1.091584         1.808900        -0.183128
 C         0.603220         0.916024        -1.404471
 C         1.135296         1.436817        -2.689540
 O         0.813190         2.901676        -2.832386
 C         1.645531         0.780194         0.887780
 O         1.031943         0.492165         1.910592
 H         3.489114         4.122093        -3.211984
 H         4.197450         2.643897        -3.058124
 H         3.016701         2.952383        -4.237328
 H         3.224905         2.336329        -0.417513
 H         2.024544         3.722859        -0.768179
 H         0.221249         2.502773         0.217529
 H         0.778684        -0.117854        -1.236523
 H        -0.524195         0.857803        -1.385590
 H         1.160351         0.898088        -3.628676
 H         2.714382         0.527649         0.654418
