19
Iteration:  4946
 C         3.346957         2.736817        -2.289528
 C         1.889281         2.602997        -2.038964
 C         1.248752         3.057707        -0.824821
 C         0.578535         1.803931        -0.128376
 C         0.212736         0.892508        -1.434780
 C         1.376665         1.323551        -2.415815
 O         1.133382         2.554136        -3.271463
 C         1.645863         1.344114         0.838614
 O         2.266470         0.311731         0.783122
 H         3.648217         3.826321        -2.368652
 H         3.882869         2.536004        -1.290967
 H         3.918949         2.272772        -3.130979
 H         1.955433         3.513038        -0.105298
 H         0.357671         3.710700        -1.114825
 H        -0.309385         2.158701         0.412757
 H         0.219022        -0.112390        -1.019189
 H        -0.795605         1.170803        -1.714846
 H         1.870777         0.503657        -3.015907
 H         1.877855         2.013338         1.661945
