19
Iteration:  4634
 C         3.312136         3.264518        -2.975238
 C         2.027036         2.707183        -2.244635
 C         1.801868         2.998751        -0.749360
 C         0.871912         1.775860        -0.278959
 C         0.892831         0.682356        -1.390430
 C         1.449276         1.370102        -2.592696
 O         0.746226         2.623795        -3.002432
 C         1.246191         1.196940         1.084767
 O         1.500630         0.051889         1.352729
 H         3.030102         4.324929        -3.119308
 H         4.199681         2.974384        -2.429159
 H         3.502341         2.583899        -3.960139
 H         2.730108         2.835248        -0.272052
 H         1.307297         3.912366        -0.632326
 H        -0.124407         2.223677        -0.245649
 H         1.649283        -0.044777        -1.182952
 H        -0.016146         0.121346        -1.432029
 H         1.787144         0.908300        -3.502970
 H         1.342090         1.983066         1.941607
