19
Iteration:   334
 C         3.274358         2.035288        -3.225147
 C         2.129397         2.325332        -2.307413
 C         2.359419         2.253315        -0.754189
 C         1.024421         1.907760        -0.127504
 C        -0.038372         1.839792        -1.289638
 C         0.718633         1.932726        -2.567458
 O         1.166521         3.349380        -2.669163
 C         1.424084         0.542074         0.454840
 O         1.644012         0.427833         1.655393
 H         3.984885         2.974721        -3.234481
 H         3.868057         1.130240        -2.839881
 H         3.045647         1.704493        -4.230167
 H         3.242827         1.642684        -0.623332
 H         2.798366         3.157373        -0.368309
 H         0.864136         2.525993         0.773901
 H        -0.652836         0.995194        -1.245938
 H        -0.630288         2.759933        -1.250792
 H         0.496251         1.438329        -3.641983
 H         1.895203        -0.175729        -0.285127
