19
Iteration:  3956charge 0 multiplicity 1
 C         3.218034         3.214003        -2.875867
 C         2.053517         2.617600        -2.187774
 C         1.739002         2.966830        -0.751541
 C         0.830350         1.867326        -0.279997
 C         0.875291         0.669075        -1.349729
 C         1.474417         1.328638        -2.619660
 O         0.799457         2.561919        -2.966076
 C         1.336211         1.317294         0.999560
 O         1.499688         0.100864         1.246147
 H         3.453805         4.276245        -2.635962
 H         4.184465         2.779618        -2.721487
 H         3.026383         3.130829        -4.057130
 H         2.693490         3.002722        -0.245741
 H         1.435824         3.957633        -0.593550
 H        -0.241850         2.131696        -0.039127
 H         1.644828        -0.087594        -1.029219
 H        -0.119688         0.130304        -1.566536
 H         1.823222         0.740234        -3.499636
 H         1.563904         2.143589         1.696455
