19
Iteration:  2865charge 0 multiplicity 1
 C         3.522223         2.699411        -2.702172
 C         2.040097         2.461728        -2.211339
 C         1.815923         2.784512        -0.744333
 C         0.806080         1.695449        -0.227815
 C         0.119380         1.053810        -1.476001
 C         1.125613         1.474956        -2.650322
 O         0.898900         2.865471        -3.016720
 C         1.741750         0.791201         0.479532
 O         1.717383         0.719945         1.688128
 H         3.746927         3.726832        -2.423067
 H         4.293057         1.969148        -2.542898
 H         3.404554         2.764587        -3.778078
 H         2.843668         2.834865        -0.280920
 H         1.328277         3.849925        -0.487474
 H         0.100255         2.006047         0.442719
 H        -0.188044         0.035835        -1.310570
 H        -0.860109         1.508885        -1.549174
 H         1.474802         0.773269        -3.263085
 H         2.526168         0.241407        -0.141143
