19
Iteration:  2953
 C         3.434190         2.689244        -2.670795
 C         2.100224         2.482808        -2.192934
 C         1.794339         2.866365        -0.788481
 C         0.809161         1.811974        -0.176799
 C         0.189671         1.117828        -1.476875
 C         1.110818         1.443760        -2.609142
 O         0.884328         2.812188        -3.029031
 C         1.743297         0.744015         0.462115
 O         1.749087         0.633007         1.677109
 H         3.621394         3.714737        -2.921359
 H         4.043203         2.432379        -1.832520
 H         3.612473         2.188529        -3.692374
 H         2.714633         2.660311        -0.172312
 H         1.373710         3.954085        -0.710998
 H         0.042893         2.103603         0.451950
 H        -0.154305         0.057700        -1.330131
 H        -0.744303         1.522114        -1.934402
 H         1.327349         0.885209        -3.515847
 H         2.433866         0.095148        -0.253179
