19
Iteration:  4472charge 0 multiplicity 1
 C         3.082476         3.332218        -3.123911
 C         2.057882         2.711759        -2.269454
 C         2.001860         2.894480        -0.762201
 C         1.085105         1.701184        -0.302362
 C         1.184567         0.542321        -1.425057
 C         1.480809         1.403930        -2.639279
 O         0.685954         2.674209        -2.810375
 C         1.321552         1.262311         1.097599
 O         1.042090         0.106459         1.430185
 H         3.104595         4.350775        -3.239652
 H         4.032530         2.940304        -2.873790
 H         3.023501         2.966995        -4.107761
 H         3.043511         2.775228        -0.372569
 H         1.431269         3.822647        -0.352544
 H         0.022303         2.045396        -0.259678
 H         2.086120        -0.139787        -1.269569
 H         0.204262         0.010487        -1.521319
 H         1.710749         1.175664        -3.661014
 H         1.679373         1.965955         1.858884
