19
Iteration:  1651charge 0 multiplicity 1
 C         3.372927         2.402680        -3.129266
 C         2.124038         2.462150        -2.265465
 C         1.987758         2.867597        -0.781827
 C         0.949096         1.901595        -0.074080
 C         0.270928         1.298056        -1.325645
 C         0.975441         1.667252        -2.589178
 O         0.966965         3.081659        -2.956253
 C         1.740768         0.728950         0.635920
 O         1.421103         0.276336         1.688088
 H         3.726840         3.425308        -3.599180
 H         4.152724         2.010448        -2.445317
 H         3.257879         1.749695        -4.000885
 H         2.938782         2.788600        -0.230556
 H         1.570101         3.826443        -0.567936
 H         0.332074         2.489168         0.578337
 H         0.446176         0.131385        -1.257946
 H        -0.849875         1.339765        -1.390253
 H         1.333746         0.921402        -3.316805
 H         2.405945         0.262791        -0.096970
