19
Iteration:   910charge 0 multiplicity 1
 C         3.435917         2.206106        -3.004779
 C         2.158975         2.423032        -2.303426
 C         2.058053         2.763336        -0.717187
 C         1.021224         1.918128        -0.089107
 C         0.037183         1.691865        -1.158580
 C         0.832997         1.658651        -2.502144
 O         1.095341         3.069927        -3.046112
 C         1.576829         0.628992         0.406782
 O         1.599105         0.299374         1.574426
 H         4.075066         3.041315        -2.757255
 H         3.993592         1.323070        -2.486609
 H         3.267746         1.931805        -3.979526
 H         2.921026         2.767918        -0.094042
 H         1.774084         3.848455        -0.840030
 H         0.686892         2.262685         0.871658
 H        -0.539020         0.763978        -0.992798
 H        -0.707323         2.486412        -1.081384
 H         0.712575         0.925189        -3.351717
 H         1.838644        -0.130446        -0.304961
