19
Iteration:  4088
 C         3.251492         3.398211        -3.003121
 C         2.067180         2.623813        -2.235166
 C         1.924535         2.880100        -0.704200
 C         0.809393         1.808383        -0.269599
 C         0.808862         0.696365        -1.296335
 C         1.406517         1.319085        -2.564231
 O         0.885096         2.552216        -3.006228
 C         1.098769         1.253280         1.057081
 O         1.603131         0.139539         1.224054
 H         3.167753         4.400262        -2.738985
 H         4.082464         2.966613        -2.645316
 H         3.006878         3.094160        -4.091632
 H         2.972782         2.571035        -0.316138
 H         1.511518         3.858716        -0.580825
 H        -0.181693         2.325774        -0.008300
 H         1.298021        -0.279331        -1.121555
 H        -0.248939         0.280240        -1.475838
 H         1.795797         0.574977        -3.238327
 H         0.965899         1.971170         1.923942
