19
Iteration:  1708
 C         3.413410         2.735251        -3.083914
 C         2.109601         2.441162        -2.330353
 C         2.316017         2.750231        -0.831748
 C         1.136351         1.903570        -0.114739
 C         0.192076         1.286534        -1.293509
 C         0.953908         1.523636        -2.585688
 O         0.819062         2.932752        -3.007369
 C         1.634482         0.760698         0.699777
 O         1.260611         0.293541         1.729989
 H         3.764144         3.773706        -2.757024
 H         4.201717         1.960158        -2.996277
 H         3.168407         2.688551        -4.208284
 H         3.253041         2.264927        -0.650918
 H         2.432159         3.738698        -0.343721
 H         0.537935         2.544966         0.574989
 H         0.045738         0.166298        -1.144381
 H        -0.752303         1.798846        -1.388874
 H         0.968386         0.811415        -3.344672
 H         2.599849         0.420487         0.204600
