19
Iteration:  4109charge 0 multiplicity 1
 C         3.235123         3.207800        -3.055972
 C         2.119183         2.671660        -2.262332
 C         1.851889         2.874334        -0.764856
 C         0.794698         1.825687        -0.307846
 C         0.913841         0.734809        -1.336456
 C         1.480083         1.403823        -2.636131
 O         0.798464         2.653485        -2.998149
 C         1.018645         1.172424         1.205080
 O         1.646241         0.107416         1.341992
 H         3.278954         4.236701        -2.688659
 H         4.201291         2.759836        -2.910637
 H         2.956347         3.321410        -4.176751
 H         2.808477         2.471038        -0.173409
 H         1.481650         3.905747        -0.526575
 H        -0.180582         2.444148        -0.245609
 H         1.623033        -0.032922        -1.043498
 H         0.017846         0.066690        -1.426745
 H         1.764831         0.794504        -3.491759
 H         0.552831         1.755833         2.093631
