19
Iteration:  3433charge 0 multiplicity 1
 C         3.301628         3.148911        -3.056673
 C         2.131321         2.611402        -2.326317
 C         2.040131         2.685830        -0.823162
 C         0.995346         1.672532        -0.264133
 C         0.504423         0.847845        -1.538293
 C         1.195377         1.401944        -2.760194
 O         0.816089         2.786801        -2.942160
 C         1.437352         0.642858         0.805590
 O         1.421116         0.775116         2.038786
 H         3.567558         4.119594        -2.635699
 H         4.015501         2.433338        -2.778747
 H         3.297617         3.120656        -4.216282
 H         2.999804         2.550129        -0.433388
 H         1.904829         3.707033        -0.628990
 H         0.150549         2.350801         0.176660
 H         0.709357        -0.241043        -1.439240
 H        -0.593577         0.813428        -1.618119
 H         1.435048         0.841944        -3.628203
 H         2.022411        -0.210902         0.251316
