19
Iteration:  4367charge 0 multiplicity 1
 C         3.205988         3.497898        -2.986855
 C         2.016280         2.679893        -2.330512
 C         1.907080         2.817219        -0.799635
 C         0.903982         1.673066        -0.285842
 C         0.739166         0.776901        -1.448215
 C         1.549225         1.305784        -2.551824
 O         0.820526         2.544432        -3.000171
 C         1.512768         1.125126         0.989229
 O         1.227753         0.146484         1.584293
 H         3.205525         4.581838        -2.786432
 H         4.273031         3.274552        -2.691687
 H         3.055317         3.334384        -3.979367
 H         2.911905         2.754207        -0.316948
 H         1.518930         3.690969        -0.427539
 H         0.015996         2.155736         0.126392
 H         0.935380        -0.235865        -1.225906
 H        -0.230820         0.630914        -1.880485
 H         1.814869         0.917414        -3.530112
 H         2.280135         1.904329         1.348309
