19
Iteration:  4866
 C         3.407858         2.963646        -2.465807
 C         2.002683         2.568871        -2.005671
 C         1.416890         3.088896        -0.697781
 C         0.492917         1.931877        -0.138630
 C         0.269397         0.957905        -1.343590
 C         1.416377         1.222009        -2.250842
 O         1.090525         2.350344        -3.235022
 C         1.378239         1.194017         0.842281
 O         2.229370         0.384715         0.558934
 H         3.480927         4.082779        -2.572578
 H         4.216668         2.594521        -1.739466
 H         3.721390         2.452037        -3.354681
 H         2.307278         3.451356         0.036268
 H         0.785010         3.910504        -0.785579
 H        -0.437333         2.327838         0.323198
 H         0.328881         0.005976        -1.018773
 H        -0.720205         1.043998        -1.749910
 H         2.009647         0.331815        -2.558440
 H         1.183043         1.495228         1.930223
