19
Iteration:  4998charge 0 multiplicity 1
 C         3.451084         2.976199        -2.325344
 C         1.941092         2.587931        -2.076511
 C         1.279644         3.099550        -0.930038
 C         0.642630         1.874274        -0.150252
 C         0.386024         0.898349        -1.313003
 C         1.356801         1.214440        -2.350320
 O         1.021136         2.461263        -3.169741
 C         1.592766         1.314815         0.797791
 O         2.070750         0.190265         0.757355
 H         3.496068         4.052349        -2.034858
 H         4.227070         2.487065        -1.668013
 H         3.769730         2.772113        -3.305751
 H         1.934526         3.783689        -0.239683
 H         0.604285         3.828558        -1.321904
 H        -0.303349         2.166630         0.385305
 H         0.396354        -0.061253        -0.930046
 H        -0.609957         1.218128        -1.685668
 H         1.746525         0.356032        -3.039016
 H         2.067461         1.961852         1.591542
