19
Iteration:  1052charge 0 multiplicity 1
 C         3.380523         2.458768        -3.126109
 C         2.157925         2.351574        -2.350439
 C         2.277266         2.725597        -0.844295
 C         1.213223         1.992149        -0.065033
 C         0.096306         1.591940        -1.152172
 C         0.860626         1.644090        -2.484094
 O         1.015020         3.010055        -3.026553
 C         1.669293         0.660328         0.598496
 O         1.202851         0.177348         1.657355
 H         3.626414         3.538299        -3.095371
 H         4.256601         1.800131        -2.758560
 H         3.107559         2.178909        -4.161518
 H         3.349975         2.550691        -0.479510
 H         2.038868         3.854328        -0.934238
 H         0.869731         2.633626         0.767421
 H        -0.504733         0.717660        -1.065341
 H        -0.645632         2.353656        -1.166844
 H         0.682178         0.773501        -3.177220
 H         2.444206         0.106132         0.085500
