19
Iteration:   399charge 0 multiplicity 1
 C         3.213524         2.058673        -3.425756
 C         2.195015         2.400282        -2.326731
 C         2.535826         2.531739        -0.872691
 C         1.254475         1.921925        -0.096397
 C         0.106413         1.637858        -1.185602
 C         0.682694         2.035332        -2.477391
 O         1.145344         3.357333        -2.832325
 C         1.456612         0.571679         0.656766
 O         1.242361         0.195439         1.795924
 H         4.175463         2.625883        -3.165908
 H         3.471773         0.967158        -3.462119
 H         2.861450         2.221599        -4.431732
 H         3.323897         1.846789        -0.792985
 H         2.740759         3.510214        -0.522583
 H         0.868034         2.668191         0.629439
 H        -0.107456         0.534776        -1.139798
 H        -0.836128         2.215416        -1.128541
 H         0.436772         1.372772        -3.470563
 H         2.104309        -0.074379        -0.159125
