19
Iteration:    23charge 0 multiplicity 1
 C         3.188393         2.737584        -3.434802
 C         2.224171         2.461232        -2.319168
 C         2.546057         2.306835        -0.846057
 C         1.293396         1.693514        -0.242416
 C         0.439745         1.102799        -1.439071
 C         1.025113         1.724627        -2.698438
 O         0.985923         3.247022        -2.572067
 C         1.502078         0.660376         0.901009
 O         0.750761         0.601365         1.809279
 H         3.823781         3.577277        -3.170733
 H         3.864792         1.906372        -3.641483
 H         2.627928         3.041873        -4.345982
 H         3.443289         1.702212        -0.750261
 H         2.724169         3.292305        -0.420617
 H         0.687719         2.477262         0.209195
 H         0.434668         0.011434        -1.549281
 H        -0.582846         1.434157        -1.285709
 H         0.797600         1.345699        -3.671598
 H         2.323927         0.014162         0.823616
