19
Iteration:   976charge 0 multiplicity 1
 C         3.435827         2.114920        -3.055004
 C         2.191973         2.336932        -2.226182
 C         2.108693         2.881705        -0.763839
 C         1.027169         1.998031        -0.088351
 C        -0.026728         1.494632        -1.152868
 C         0.788159         1.767353        -2.513813
 O         1.114190         3.080713        -2.897073
 C         1.775109         0.776754         0.436706
 O         1.417829         0.235107         1.475221
 H         4.127401         2.927889        -3.071447
 H         3.991900         1.270522        -2.588536
 H         3.175610         1.806784        -3.984569
 H         3.020885         3.070948        -0.301010
 H         1.746400         3.910843        -0.916283
 H         0.411549         2.461452         0.642255
 H        -0.142345         0.431644        -0.977455
 H        -0.983545         1.986402        -1.084952
 H         0.589480         1.096873        -3.382664
 H         2.530977         0.150059        -0.203682
