19
Iteration:  4450
 C         3.127424         3.232587        -3.088687
 C         2.028716         2.750493        -2.266526
 C         1.902468         2.991281        -0.743489
 C         1.138641         1.720446        -0.295037
 C         1.150445         0.715153        -1.394399
 C         1.445669         1.446102        -2.656269
 O         0.655972         2.622700        -2.895005
 C         1.435883         1.133275         1.029188
 O         1.020681         0.053597         1.474020
 H         3.130573         4.238027        -3.477333
 H         4.004307         3.013217        -2.497625
 H         3.357856         2.627850        -3.948379
 H         2.910695         2.950655        -0.256048
 H         1.320096         4.007331        -0.529654
 H         0.089982         2.089640        -0.165200
 H         2.055299         0.072666        -1.185333
 H         0.168506         0.188949        -1.472034
 H         1.935612         0.925789        -3.503567
 H         2.002335         1.774496         1.771140
