19
Iteration:  2174charge 0 multiplicity 1
 C         3.411950         2.650221        -3.055445
 C         2.158772         2.443811        -2.234862
 C         1.956746         2.844296        -0.729927
 C         0.916395         1.818565        -0.117023
 C         0.034442         1.265254        -1.337537
 C         1.093679         1.569083        -2.580216
 O         0.984476         2.930599        -3.090213
 C         1.653897         0.704154         0.597686
 O         1.578997         0.357233         1.746894
 H         3.807905         3.602108        -2.726441
 H         4.123924         2.030689        -2.578381
 H         3.269271         2.427664        -4.133013
 H         3.004034         2.673375        -0.238635
 H         1.696483         3.863382        -0.723510
 H         0.313468         2.361911         0.535147
 H        -0.203439         0.213536        -1.156912
 H        -0.805214         1.950587        -1.590029
 H         1.063334         0.877082        -3.400285
 H         2.584882         0.450369         0.016931
