19
Iteration:  1983charge 0 multiplicity 1
 C         3.248701         2.916022        -3.288436
 C         2.133078         2.484758        -2.366695
 C         2.379116         2.374494        -0.847430
 C         1.134107         1.684247        -0.271463
 C         0.503261         0.918766        -1.531006
 C         1.064739         1.637677        -2.779474
 O         0.837052         3.116596        -2.636388
 C         1.417242         0.667520         0.840919
 O         1.180204         0.737718         2.010833
 H         3.544212         3.926382        -3.001920
 H         4.176581         2.323996        -3.511808
 H         2.675653         3.039157        -4.256726
 H         3.372259         1.772827        -0.651634
 H         2.451615         3.425295        -0.404217
 H         0.357558         2.410855         0.133217
 H         0.896846        -0.150426        -1.522946
 H        -0.566337         0.946130        -1.541841
 H         0.838501         1.251908        -3.742617
 H         1.980617        -0.195921         0.481191
