19
Iteration:  2864charge 0 multiplicity 1
 C         3.518560         2.704920        -2.707731
 C         2.045190         2.456306        -2.208047
 C         1.822777         2.777047        -0.737782
 C         0.805606         1.704089        -0.238765
 C         0.127835         1.049223        -1.473529
 C         1.120232         1.466825        -2.643798
 O         0.901860         2.869032        -3.018639
 C         1.735580         0.792328         0.479076
 O         1.719726         0.718895         1.683729
 H         3.732981         3.743666        -2.416424
 H         4.282665         1.949865        -2.494504
 H         3.402344         2.810973        -3.741814
 H         2.821132         2.811441        -0.323597
 H         1.308884         3.841052        -0.501988
 H         0.095477         2.058102         0.473500
 H        -0.189152         0.038245        -1.299438
 H        -0.880218         1.502074        -1.548003
 H         1.439054         0.777745        -3.290941
 H         2.516042         0.260886        -0.112541
