19
Iteration:  1885
 C         3.075508         3.221090        -3.337630
 C         2.179526         2.467653        -2.356116
 C         2.694887         2.023324        -0.995536
 C         1.323115         1.468799        -0.392911
 C         0.554850         0.809450        -1.580189
 C         0.947941         1.663998        -2.750999
 O         0.878411         3.036857        -2.369587
 C         1.333376         0.675480         0.912487
 O         0.933439         1.096335         1.952738
 H         3.440730         4.128929        -2.917016
 H         4.001625         2.679149        -3.632488
 H         2.514337         3.630815        -4.187055
 H         3.424808         1.299313        -1.291561
 H         3.090051         2.835185        -0.346864
 H         0.801409         2.438321        -0.129446
 H         0.868006        -0.284820        -1.641569
 H        -0.460149         0.714569        -1.337078
 H         0.667352         1.385439        -3.706243
 H         1.911535        -0.288836         0.923230
