19
Iteration:  3577charge 0 multiplicity 1
 C         3.398849         2.997479        -2.738961
 C         2.067458         2.533948        -2.166345
 C         1.722951         2.754944        -0.726259
 C         0.731231         1.619230        -0.277419
 C         0.325492         0.896407        -1.608101
 C         1.260813         1.403582        -2.719573
 O         0.896512         2.790056        -3.105980
 C         1.457565         0.671241         0.715738
 O         1.957186         0.878777         1.791709
 H         3.589374         4.039584        -2.383758
 H         4.297992         2.405567        -2.297261
 H         3.380195         2.891954        -3.934159
 H         2.524983         2.918009        -0.070151
 H         1.301124         3.831225        -0.742417
 H        -0.226317         1.953884         0.357371
 H         0.372489        -0.266137        -1.544619
 H        -0.720448         1.199521        -1.867756
 H         1.496031         0.804823        -3.682135
 H         1.348688        -0.387974         0.466484
