19
Iteration:  1764
 C         3.236217         2.720011        -3.297815
 C         2.194291         2.513187        -2.349136
 C         2.314927         2.635674        -0.818156
 C         1.170038         1.775589        -0.256588
 C         0.393353         1.073735        -1.401416
 C         1.060035         1.641509        -2.650490
 O         0.851287         3.037570        -2.661829
 C         1.638478         0.748536         0.770291
 O         1.079702         0.495915         1.804734
 H         3.996289         3.485566        -3.146680
 H         3.793035         1.730515        -3.098867
 H         2.863573         2.674834        -4.407376
 H         3.276802         2.424851        -0.451571
 H         1.976864         3.644162        -0.439433
 H         0.476139         2.450842         0.361927
 H         0.616116        -0.048245        -1.440335
 H        -0.659147         1.173013        -1.495803
 H         0.759036         1.210156        -3.551790
 H         2.483649         0.035687         0.462813
