19
Iteration:  4905charge 0 multiplicity 1
 C         3.473003         2.869449        -2.289361
 C         2.036006         2.471376        -2.069819
 C         1.353406         3.051492        -0.804689
 C         0.517506         1.906410        -0.219954
 C         0.218569         0.863826        -1.357075
 C         1.329805         1.225200        -2.343279
 O         1.042211         2.525089        -3.055582
 C         1.479814         1.293905         0.793005
 O         2.269306         0.395360         0.596248
 H         3.459612         3.867608        -2.752269
 H         4.078564         2.851988        -1.401657
 H         3.811436         2.090195        -3.077030
 H         1.929126         3.638353        -0.109483
 H         0.636629         3.967000        -1.228664
 H        -0.323025         2.271379         0.404577
 H         0.504296        -0.282397        -1.010310
 H        -0.735472         0.901058        -1.943727
 H         1.941509         0.528676        -2.892919
 H         1.422644         1.845599         1.835291
