19
Iteration:  4744charge 0 multiplicity 1
 C         3.413740         3.011862        -2.582788
 C         1.992412         2.608816        -2.154986
 C         1.355729         3.065043        -0.890254
 C         0.739393         1.801952        -0.251167
 C         0.500227         0.807671        -1.329789
 C         1.297343         1.339218        -2.443802
 O         0.982309         2.618412        -3.142058
 C         1.556843         1.272286         0.920197
 O         1.907110         0.104641         1.090009
 H         3.586331         4.100083        -2.745262
 H         4.180906         2.700265        -1.835258
 H         3.826417         2.344638        -3.508055
 H         2.092959         3.623906        -0.210693
 H         0.673455         3.846461        -1.116061
 H        -0.246251         2.194893         0.155273
 H         0.937135        -0.106628        -1.068895
 H        -0.494764         0.601531        -1.625222
 H         1.907832         0.821844        -3.174764
 H         1.628043         2.002412         1.747740
