19
Iteration:  4354
 C         3.219901         3.467212        -3.002779
 C         2.093452         2.691967        -2.276541
 C         1.870093         2.887371        -0.786375
 C         0.946631         1.752890        -0.277700
 C         0.760784         0.658017        -1.445272
 C         1.474046         1.359105        -2.647975
 O         0.788180         2.598256        -3.073859
 C         1.457911         1.150512         1.053865
 O         1.258572         0.066839         1.622459
 H         3.137385         4.573727        -2.651214
 H         4.191846         2.929209        -2.719578
 H         3.156217         3.453489        -4.063850
 H         2.857411         2.728300        -0.395682
 H         1.567064         3.831994        -0.597205
 H        -0.065545         2.162453        -0.155095
 H         1.235628        -0.216916        -1.180918
 H        -0.307713         0.517916        -1.606836
 H         1.901819         0.587386        -3.290724
 H         2.269481         1.764172         1.493290
