19
Iteration:  2252charge 0 multiplicity 1
 C         3.457892         2.563740        -2.981481
 C         2.141535         2.405578        -2.226277
 C         1.957605         2.764517        -0.727154
 C         0.876378         1.756468        -0.119466
 C         0.146578         1.240309        -1.392668
 C         0.989419         1.600521        -2.594616
 O         0.943216         3.005950        -3.025529
 C         1.799089         0.830404         0.591657
 O         1.538101         0.402737         1.701845
 H         3.609693         3.628098        -3.083736
 H         4.222180         2.014098        -2.552326
 H         3.358620         2.232875        -4.051402
 H         2.857503         2.909441        -0.034678
 H         1.525463         3.746691        -0.812830
 H         0.157287         2.266845         0.470474
 H        -0.081599         0.174298        -1.433261
 H        -0.854156         1.772361        -1.574309
 H         0.945905         0.877120        -3.344406
 H         2.718429         0.505439         0.022452
