19
Iteration:  4621
 C         3.271644         3.209489        -2.963641
 C         2.040483         2.746743        -2.300612
 C         1.839877         2.906171        -0.810896
 C         0.879675         1.729672        -0.294534
 C         1.006519         0.649486        -1.459421
 C         1.428381         1.487383        -2.690500
 O         0.685226         2.620362        -2.926053
 C         1.203094         1.223649         1.168237
 O         1.475446         0.060236         1.433123
 H         3.503139         4.284155        -3.296728
 H         4.109269         3.153649        -2.259008
 H         3.369007         2.742455        -3.995157
 H         2.858289         2.966120        -0.362734
 H         1.566344         3.878509        -0.476147
 H        -0.177485         2.088681        -0.141340
 H         1.671610        -0.068416        -1.130182
 H         0.095945         0.249737        -1.772627
 H         1.852215         0.885005        -3.449830
 H         1.111867         2.078297         2.000870
