19
Iteration:  4216charge 0 multiplicity 1
 C         3.069755         3.521437        -2.989749
 C         2.075731         2.616538        -2.252630
 C         2.198442         2.600297        -0.768613
 C         0.964395         1.750665        -0.397996
 C         0.770788         0.608780        -1.524070
 C         1.435992         1.298480        -2.752784
 O         0.815683         2.597785        -2.853728
 C         1.012671         1.265588         1.093080
 O         1.520809         0.273748         1.568321
 H         2.702372         4.549320        -2.837918
 H         4.058007         3.290879        -2.471304
 H         3.162335         3.386003        -4.118279
 H         3.071102         2.176737        -0.439146
 H         2.284577         3.622638        -0.253019
 H         0.177611         2.502887        -0.453853
 H         1.243259        -0.346359        -1.262262
 H        -0.266307         0.708462        -1.715658
 H         1.911443         0.813259        -3.603928
 H         0.515819         1.988885         1.854851
