19
Iteration:  3731charge 0 multiplicity 1
 C         3.313578         3.135527        -2.845484
 C         2.096687         2.582865        -2.186060
 C         1.829324         2.756545        -0.659794
 C         0.604938         1.818654        -0.308652
 C         0.654246         0.707285        -1.485734
 C         1.440978         1.377364        -2.595335
 O         0.850022         2.655085        -2.915990
 C         0.954110         0.989321         0.970601
 O         2.066389         0.608897         1.218714
 H         3.415842         4.148314        -2.481430
 H         4.206285         2.508821        -2.588577
 H         3.297999         3.294889        -3.905146
 H         2.642721         2.288512        -0.143008
 H         1.453482         3.780494        -0.395263
 H        -0.391669         2.401599        -0.317047
 H         1.128721        -0.145349        -1.054725
 H        -0.333476         0.480175        -1.753862
 H         1.783942         0.635252        -3.331847
 H         0.004857         0.576516         1.460986
