19
Iteration:  1749
 C         3.347731         2.688569        -3.335450
 C         2.151224         2.502177        -2.286640
 C         2.310179         2.710531        -0.786413
 C         1.121714         1.877992        -0.168881
 C         0.383268         1.095462        -1.355080
 C         0.985010         1.575156        -2.622423
 O         0.863334         3.022501        -2.784434
 C         1.569893         0.723378         0.742832
 O         1.141397         0.411115         1.787583
 H         3.854150         3.693694        -3.116142
 H         4.095842         1.927386        -3.450823
 H         2.892888         3.064875        -4.237741
 H         3.305288         2.212258        -0.492721
 H         2.297747         3.785103        -0.681662
 H         0.370462         2.436502         0.349444
 H         0.349845        -0.041596        -1.191701
 H        -0.700293         1.374334        -1.145169
 H         1.151813         0.943762        -3.517477
 H         2.442319         0.195487         0.216237
