19
Iteration:  2181charge 0 multiplicity 1
 C         3.464316         2.639232        -3.034127
 C         2.136346         2.515367        -2.261227
 C         1.988701         2.877764        -0.712956
 C         0.864630         1.850230        -0.116682
 C         0.085945         1.267550        -1.374177
 C         1.028787         1.533746        -2.546784
 O         0.974879         2.915641        -3.100050
 C         1.676025         0.747397         0.579099
 O         1.579973         0.326874         1.760829
 H         3.760954         3.732142        -3.041739
 H         4.212258         1.796020        -2.680709
 H         3.407439         2.418382        -4.092216
 H         2.900266         2.598537        -0.270789
 H         1.779135         3.957397        -0.483855
 H         0.232223         2.209402         0.765798
 H        -0.178335         0.181680        -1.192667
 H        -0.816367         1.827992        -1.506744
 H         1.076963         0.713791        -3.374539
 H         2.392094         0.115285        -0.069169
