19
Iteration:  4639charge 0 multiplicity 1
 C         3.271375         3.252212        -2.972492
 C         2.024782         2.672659        -2.270491
 C         1.774001         2.980960        -0.704601
 C         0.873304         1.775563        -0.282648
 C         0.864927         0.705341        -1.337563
 C         1.448295         1.345825        -2.565497
 O         0.795791         2.635382        -3.019430
 C         1.278167         1.216163         1.048439
 O         1.506450         0.039577         1.313811
 H         3.126293         4.317176        -3.165808
 H         4.189628         3.107131        -2.340394
 H         3.381354         2.823293        -3.905638
 H         2.707771         2.948509        -0.023369
 H         1.336198         4.074708        -0.740693
 H        -0.104248         2.297863        -0.290099
 H         1.709467        -0.091889        -1.159328
 H        -0.155638         0.168376        -1.380914
 H         1.804012         0.745420        -3.451165
 H         1.324731         2.003249         1.774779
