19
Iteration:  2906charge 0 multiplicity 1
 C         3.421664         2.579420        -2.774675
 C         2.033630         2.538268        -2.170694
 C         1.666809         2.940474        -0.781969
 C         0.826648         1.690760        -0.150225
 C         0.246098         1.079459        -1.477734
 C         1.091887         1.491329        -2.689132
 O         1.009541         2.954560        -3.149204
 C         1.678752         0.736759         0.585215
 O         1.815446         0.588383         1.798338
 H         3.755981         3.666177        -2.820059
 H         4.124520         1.960647        -2.141754
 H         3.310904         2.381995        -3.777227
 H         2.442283         3.103395        -0.172249
 H         1.033914         3.839530        -0.963024
 H         0.072754         2.093427         0.637845
 H         0.200251        -0.014455        -1.494631
 H        -0.858152         1.370755        -1.602198
 H         1.549516         0.910668        -3.441604
 H         2.174436        -0.063933        -0.077917
