19
Iteration:   214
 C         3.333687         2.236317        -3.186480
 C         2.194828         2.329857        -2.304985
 C         2.415479         2.121237        -0.820499
 C         0.927826         1.992813        -0.192158
 C        -0.000179         1.406499        -1.319097
 C         0.706799         1.925796        -2.564901
 O         1.248150         3.316215        -2.559807
 C         0.966126         1.030370         0.940331
 O         1.937096         0.311300         1.164484
 H         4.169204         2.743831        -2.586232
 H         3.601663         1.142679        -3.243445
 H         3.246886         2.531985        -4.187285
 H         2.973101         1.087258        -0.619154
 H         3.066231         2.821083        -0.255632
 H         0.483276         2.964811         0.080738
 H         0.118930         0.286081        -1.352094
 H        -1.045475         1.743902        -1.226208
 H         0.277422         1.696030        -3.629878
 H         0.212381         1.049902         1.735933
