19
Iteration:  4768
 C         3.445978         2.899994        -2.434161
 C         1.979290         2.588716        -2.123403
 C         1.355263         3.127284        -0.810496
 C         0.667792         1.824059        -0.195697
 C         0.535715         0.826180        -1.417380
 C         1.349899         1.301621        -2.558376
 O         0.876004         2.558887        -3.089851
 C         1.564110         1.330511         0.891661
 O         1.975346         0.197651         0.970181
 H         3.796833         3.910167        -2.706121
 H         4.156586         2.486614        -1.621559
 H         3.699969         2.153481        -3.227126
 H         2.036984         3.648800        -0.151117
 H         0.688162         3.885142        -1.066556
 H        -0.343373         1.938834         0.226112
 H         0.796572        -0.080800        -1.059776
 H        -0.464462         0.733208        -1.847734
 H         1.926137         0.859803        -3.385862
 H         1.898171         2.163720         1.522168
