19
Iteration:  4072
 C         3.163069         3.355853        -2.880672
 C         2.066542         2.559663        -2.229961
 C         1.900164         2.828782        -0.749266
 C         0.841701         1.851191        -0.312679
 C         0.711845         0.740461        -1.420868
 C         1.523058         1.281605        -2.555687
 O         0.825910         2.508167        -2.938729
 C         1.250786         1.314954         1.038571
 O         1.574230         0.146306         1.217335
 H         2.916171         4.486467        -2.729531
 H         4.264239         3.240104        -2.341888
 H         3.262745         3.084110        -3.918538
 H         2.868962         2.712380        -0.227586
 H         1.630633         3.924324        -0.460573
 H        -0.125462         2.331670        -0.347024
 H         1.056278        -0.145107        -0.876913
 H        -0.286802         0.576055        -1.742290
 H         1.839777         0.698206        -3.447995
 H         1.264737         2.003990         1.966475
