19
Iteration:  2177charge 0 multiplicity 1
 C         3.440276         2.645605        -3.048983
 C         2.154204         2.474644        -2.244740
 C         1.969047         2.863699        -0.718618
 C         0.893708         1.829514        -0.118168
 C         0.050209         1.254371        -1.353468
 C         1.070821         1.550197        -2.567060
 O         0.979089         2.926476        -3.100581
 C         1.660344         0.728553         0.582177
 O         1.581379         0.339502         1.759385
 H         3.763506         3.678884        -2.867771
 H         4.109021         1.922569        -2.649353
 H         3.362645         2.409439        -4.133045
 H         2.984061         2.604835        -0.255349
 H         1.730006         3.962550        -0.612250
 H         0.257708         2.294866         0.692099
 H        -0.170157         0.230092        -1.153887
 H        -0.835879         1.941229        -1.571906
 H         1.047140         0.854190        -3.335507
 H         2.502627         0.288866        -0.004404
