19
Iteration:  4611
 C         3.252033         3.241898        -2.996762
 C         1.986401         2.764003        -2.339779
 C         1.890386         2.841901        -0.743760
 C         0.941654         1.664010        -0.312446
 C         1.064136         0.683302        -1.478958
 C         1.479910         1.445286        -2.698371
 O         0.649965         2.685783        -2.897454
 C         1.180231         1.231454         1.134444
 O         1.442313         0.105270         1.508574
 H         3.257244         4.360333        -3.179775
 H         3.994498         2.830761        -2.307428
 H         3.502275         2.566974        -3.939895
 H         2.784006         2.593886        -0.229247
 H         1.529071         3.797249        -0.673890
 H        -0.031194         2.146172        -0.413316
 H         1.752332        -0.099546        -1.397517
 H         0.120563         0.221603        -1.636056
 H         1.744544         0.994865        -3.626737
 H         0.902056         2.054690         1.873430
