19
Iteration:  4135
 C         3.277147         3.138916        -3.014986
 C         2.030517         2.740956        -2.224736
 C         1.931721         2.919906        -0.716340
 C         0.923696         1.690345        -0.382579
 C         0.968225         0.609991        -1.458301
 C         1.424900         1.450048        -2.669224
 O         0.699860         2.697588        -2.877713
 C         1.003333         1.185002         1.062788
 O         1.616958         0.234944         1.453180
 H         3.587999         4.156145        -2.739777
 H         4.087401         2.486676        -2.771591
 H         2.995034         3.083353        -4.048196
 H         2.844334         2.648604        -0.237349
 H         1.444308         3.814851        -0.447935
 H         0.024179         2.271714        -0.370193
 H         1.773977        -0.201003        -1.321615
 H         0.115256        -0.107233        -1.499680
 H         1.633972         0.920753        -3.617290
 H         0.287549         1.776221         1.704809
