19
Iteration:  3578charge 0 multiplicity 1
 C         3.394840         3.006112        -2.743710
 C         2.059974         2.524816        -2.165322
 C         1.730715         2.755757        -0.727629
 C         0.733363         1.625934        -0.276115
 C         0.317245         0.897513        -1.614229
 C         1.260794         1.396873        -2.709147
 O         0.903357         2.786034        -3.100411
 C         1.456096         0.665151         0.718300
 O         1.957431         0.884216         1.785625
 H         3.618109         4.044540        -2.382541
 H         4.305160         2.410859        -2.290990
 H         3.371888         2.906003        -3.911149
 H         2.516256         2.947644        -0.054031
 H         1.302504         3.850824        -0.734343
 H        -0.227389         1.946088         0.340778
 H         0.401277        -0.285050        -1.561782
 H        -0.706535         1.225377        -1.882314
 H         1.476462         0.810354        -3.684128
 H         1.328870        -0.432978         0.433724
