19
Iteration:  4489charge 0 multiplicity 1
 C         3.119374         3.496024        -3.209526
 C         2.104436         2.710799        -2.319707
 C         2.094646         2.762467        -0.777841
 C         1.018869         1.698601        -0.346305
 C         1.143458         0.607068        -1.356267
 C         1.451025         1.378019        -2.656983
 O         0.709055         2.622506        -2.762544
 C         1.187676         1.255612         1.081988
 O         1.090662         0.086883         1.506815
 H         3.091570         4.601859        -2.748576
 H         4.231242         3.110412        -3.067352
 H         2.800292         3.472647        -4.356999
 H         3.087964         2.493072        -0.399299
 H         1.798224         3.756835        -0.535942
 H        -0.001916         2.101138        -0.403356
 H         1.981050        -0.083122        -1.162615
 H         0.295734        -0.059688        -1.372165
 H         1.613967         0.760318        -3.584805
 H         1.431647         2.172052         1.762735
