19
Iteration:  1134charge 0 multiplicity 1
 C         3.400260         2.307281        -3.274429
 C         2.139052         2.511753        -2.377157
 C         2.365616         2.600615        -0.862716
 C         1.043074         1.904209        -0.183840
 C         0.257330         1.172334        -1.287135
 C         0.841471         1.824328        -2.622412
 O         0.945243         3.246207        -2.756133
 C         1.587933         0.794904         0.714762
 O         1.203601         0.332067         1.815046
 H         4.042650         3.188359        -3.154678
 H         4.000337         1.477281        -3.020779
 H         3.045832         2.289891        -4.361855
 H         3.377240         2.089115        -0.724426
 H         2.554042         3.598365        -0.502870
 H         0.568272         2.678664         0.429197
 H         0.777138         0.182556        -1.419794
 H        -0.879412         1.164339        -1.121930
 H         0.793834         1.175503        -3.475879
 H         2.284343         0.140771         0.163790
