19
Iteration:   877charge 0 multiplicity 1
 C         3.379775         2.184121        -3.023734
 C         2.179400         2.281826        -2.168207
 C         2.167547         2.795969        -0.763943
 C         0.920893         2.004163        -0.158070
 C        -0.026506         1.666769        -1.282633
 C         0.898501         1.689607        -2.509926
 O         1.077878         3.075883        -2.885714
 C         1.499436         0.650117         0.421812
 O         1.710529         0.298267         1.571373
 H         3.746286         3.212990        -3.199931
 H         4.264637         1.539661        -2.514576
 H         3.200094         1.942435        -4.060349
 H         2.843790         2.507261         0.024776
 H         2.144128         3.938538        -0.769157
 H         0.399279         2.548352         0.625504
 H        -0.305969         0.586343        -1.170042
 H        -0.900369         2.326686        -1.376035
 H         0.784835         0.912490        -3.337989
 H         1.572148        -0.162366        -0.351114
