19
Iteration:  3704charge 0 multiplicity 1
 C         3.368868         2.943045        -2.722719
 C         2.057083         2.598755        -2.134727
 C         1.709582         2.808033        -0.641949
 C         0.686757         1.721521        -0.363989
 C         0.684131         0.665224        -1.494233
 C         1.290553         1.459766        -2.656847
 O         0.842244         2.757584        -2.927975
 C         0.957282         0.938274         0.873425
 O         2.152933         0.734445         1.215553
 H         3.626815         4.036581        -2.698374
 H         4.063748         2.372846        -2.120137
 H         3.425297         2.734328        -3.833795
 H         2.719748         2.501437         0.069066
 H         1.204787         3.748785        -0.401411
 H        -0.266413         2.176608        -0.370691
 H         1.444519        -0.116061        -1.172023
 H        -0.423841         0.340254        -1.565763
 H         1.734334         0.763240        -3.391236
 H         0.092988         0.567103         1.579263
