19
Iteration:  2036
 C         3.338363         2.823542        -3.103727
 C         2.104549         2.481512        -2.305802
 C         2.238154         2.600967        -0.843532
 C         1.084863         1.734093        -0.270452
 C         0.285426         1.071676        -1.438710
 C         1.011860         1.615662        -2.670534
 O         0.842449         2.983122        -2.839465
 C         1.625760         0.681558         0.749993
 O         1.304989         0.594361         1.874152
 H         3.597268         3.846718        -2.881205
 H         4.220532         2.224711        -2.837749
 H         3.296747         2.553933        -4.218741
 H         3.171223         2.104076        -0.652781
 H         2.388894         3.643403        -0.474680
 H         0.228548         2.257280         0.262812
 H         0.209434         0.024717        -1.390078
 H        -0.632804         1.582687        -1.557034
 H         1.065261         1.089832        -3.547602
 H         2.395154        -0.061925         0.371288
