19
Iteration:  1583
 C         3.450183         2.536989        -2.988031
 C         2.103705         2.391308        -2.231470
 C         2.035182         2.794705        -0.738030
 C         1.009748         1.780064        -0.208815
 C         0.047272         1.363217        -1.375541
 C         0.893162         1.571556        -2.612356
 O         0.997349         2.995760        -2.937006
 C         1.711347         0.691149         0.522970
 O         1.562194         0.460898         1.708350
 H         3.911794         3.546096        -2.636149
 H         4.047791         1.680869        -2.614751
 H         3.490778         2.712436        -4.055296
 H         3.004300         2.762934        -0.184546
 H         1.713570         3.804395        -0.816779
 H         0.387523         2.039925         0.654830
 H        -0.442119         0.305039        -1.245027
 H        -0.840928         2.102597        -1.299064
 H         1.004918         0.806710        -3.418873
 H         2.344866        -0.007313        -0.126753
