19
Iteration:  3509charge 0 multiplicity 1
 C         3.454481         2.854358        -2.774712
 C         2.114653         2.552377        -2.229990
 C         1.739687         2.706302        -0.725872
 C         0.698250         1.462204        -0.326182
 C         0.383223         0.818391        -1.646390
 C         1.172548         1.507860        -2.764620
 O         0.848180         2.897798        -2.884822
 C         1.608112         0.712284         0.650622
 O         1.785983         1.028997         1.831640
 H         3.699029         3.959792        -2.770490
 H         4.212845         2.340026        -2.189576
 H         3.514231         2.421564        -3.894557
 H         2.519754         2.823036         0.049636
 H         1.216324         3.609809        -0.582049
 H        -0.200404         1.883186         0.261900
 H         0.783374        -0.239848        -1.617937
 H        -0.695991         0.811325        -1.994965
 H         1.268809         0.987514        -3.730441
 H         2.069113        -0.166097         0.155537
