19
Iteration:  1323
 C         3.311937         2.906361        -3.194514
 C         2.164053         2.403216        -2.367501
 C         2.454442         1.853178        -0.990216
 C         1.051457         1.492414        -0.419470
 C         0.398926         0.832455        -1.656436
 C         0.818184         1.883672        -2.784335
 O         0.943293         3.200171        -2.331065
 C         1.359153         0.659336         0.810843
 O         1.347323         1.238874         1.970823
 H         3.831496         3.518370        -2.415444
 H         3.976784         2.157552        -3.483379
 H         2.901124         3.554691        -3.909483
 H         3.224826         1.020503        -1.086978
 H         2.967398         2.638417        -0.394827
 H         0.497900         2.399919        -0.286906
 H         0.976652        -0.084015        -1.864759
 H        -0.658234         0.627591        -1.506826
 H         0.246069         1.833197        -3.742789
 H         1.262423        -0.418239         0.727164
