19
Iteration:  1322
 C         3.302355         2.902165        -3.193893
 C         2.168012         2.402499        -2.367381
 C         2.446630         1.846901        -0.991551
 C         1.052272         1.489522        -0.412369
 C         0.402914         0.823265        -1.654571
 C         0.823216         1.891227        -2.793611
 O         0.945618         3.203145        -2.323409
 C         1.363665         0.665368         0.806669
 O         1.344295         1.244097         1.966817
 H         3.845359         3.515529        -2.410678
 H         3.991860         2.183867        -3.471574
 H         2.905245         3.570757        -3.948112
 H         3.220986         0.999259        -1.072238
 H         2.942483         2.614881        -0.402807
 H         0.497586         2.397723        -0.282234
 H         0.969726        -0.066614        -1.882482
 H        -0.662652         0.618518        -1.489664
 H         0.242962         1.834218        -3.727000
 H         1.273181        -0.434871         0.725118
