19
Iteration:  3975charge 0 multiplicity 1
 C         3.310978         3.143811        -2.977112
 C         1.973001         2.725825        -2.252247
 C         1.697330         3.066509        -0.824024
 C         0.874116         1.723523        -0.275338
 C         0.922190         0.674118        -1.348225
 C         1.450388         1.424468        -2.567734
 O         0.777832         2.614756        -3.010168
 C         1.331701         1.263442         1.112439
 O         1.500881         0.039786         1.286969
 H         3.555897         4.183283        -2.817948
 H         4.100129         2.743090        -2.362067
 H         3.471439         2.752964        -3.898760
 H         2.611817         3.271124        -0.114090
 H         0.909444         3.900565        -0.688441
 H        -0.145274         2.200653        -0.070570
 H         1.435868        -0.197071        -1.026454
 H        -0.054730         0.288987        -1.535001
 H         1.912323         0.678722        -3.263380
 H         1.599971         2.026049         1.937842
