19
Iteration:  1674
 C         3.415664         2.553540        -3.084251
 C         2.138745         2.473852        -2.284171
 C         2.069470         2.890287        -0.821030
 C         1.153399         1.773050        -0.162659
 C         0.189525         1.271524        -1.327388
 C         0.914689         1.581374        -2.586962
 O         0.960420         2.994647        -2.894736
 C         1.703697         0.722334         0.652677
 O         1.320828         0.344267         1.679700
 H         3.760810         3.632027        -3.456477
 H         4.298266         2.061252        -2.629532
 H         3.047468         2.122677        -4.055990
 H         3.061171         2.776326        -0.393406
 H         1.648385         3.886330        -0.588085
 H         0.566061         2.310935         0.585339
 H        -0.094254         0.149543        -1.118634
 H        -0.806531         1.773082        -1.255374
 H         0.895291         0.892455        -3.458734
 H         2.676279         0.385865         0.203872
