19
Iteration:  2617charge 0 multiplicity 1
 C         3.146616         3.105083        -3.255348
 C         2.147409         2.497634        -2.348003
 C         2.608305         2.277322        -1.021942
 C         1.270037         1.687132        -0.349185
 C         0.684961         0.800495        -1.508592
 C         1.021870         1.586338        -2.694228
 O         0.673874         2.923226        -2.429615
 C         1.600390         0.818326         0.895940
 O         0.774654         0.890910         1.808347
 H         3.323088         4.179097        -3.069813
 H         4.118104         2.626445        -3.123742
 H         2.688354         2.863164        -4.257232
 H         3.244422         1.384329        -0.995431
 H         2.985743         3.054650        -0.477773
 H         0.557569         2.344975        -0.016648
 H         1.466998        -0.016382        -1.588178
 H        -0.263743         0.429167        -1.488882
 H         0.970483         1.243525        -3.691338
 H         2.522269         0.220287         1.071790
