19
Iteration:  4073
 C         3.157843         3.348253        -2.885387
 C         2.074496         2.576028        -2.230304
 C         1.893904         2.825087        -0.753493
 C         0.847078         1.842612        -0.308866
 C         0.716484         0.739849        -1.406483
 C         1.516587         1.279257        -2.558399
 O         0.831706         2.507509        -2.941891
 C         1.238720         1.308043         1.039665
 O         1.575974         0.148021         1.213979
 H         2.935679         4.466937        -2.737902
 H         4.235742         3.234246        -2.373979
 H         3.283292         3.141036        -3.922889
 H         2.875261         2.719600        -0.184502
 H         1.636921         3.922066        -0.439073
 H        -0.126347         2.356477        -0.364979
 H         1.077369        -0.122366        -0.891821
 H        -0.288192         0.610784        -1.697340
 H         1.831797         0.704403        -3.452278
 H         1.253703         2.021692         1.955444
