19
Iteration:  2980charge 0 multiplicity 1
 C         3.427506         2.793513        -2.861121
 C         2.152813         2.451657        -2.132619
 C         1.793125         2.842005        -0.707315
 C         0.829937         1.727075        -0.131420
 C         0.085859         1.113360        -1.490767
 C         1.095463         1.443569        -2.572675
 O         1.011887         2.769001        -3.054806
 C         1.708717         0.855135         0.495380
 O         1.712016         0.595065         1.661874
 H         3.602802         3.927066        -2.909664
 H         4.217140         2.321086        -2.200990
 H         3.369927         2.444593        -3.871676
 H         2.824054         2.788450        -0.044176
 H         1.251628         3.728277        -0.575391
 H        -0.019445         2.131378         0.538337
 H        -0.328893         0.105195        -1.473267
 H        -0.858830         1.606328        -1.738231
 H         1.455039         0.705933        -3.354331
 H         2.373066         0.305372        -0.254871
