19
Iteration:  2463charge 0 multiplicity 1
 C         3.275697         2.826891        -3.326454
 C         2.200440         2.515057        -2.320036
 C         2.290588         2.518458        -0.829212
 C         1.085532         1.785054        -0.180042
 C         0.531886         0.866072        -1.441073
 C         1.047221         1.687955        -2.669913
 O         0.770479         3.044212        -2.810916
 C         1.623605         0.921188         0.874524
 O         1.063455         0.445385         1.907941
 H         3.753544         3.837999        -3.099643
 H         3.966043         1.999822        -3.589348
 H         2.786773         3.137939        -4.218346
 H         3.152328         1.839689        -0.670675
 H         2.676507         3.507586        -0.398188
 H         0.178663         2.376121         0.075580
 H         0.799502        -0.225685        -1.491537
 H        -0.576256         1.054794        -1.491175
 H         1.141591         1.170893        -3.665975
 H         2.676716         0.630706         0.746511
