19
Iteration:  1726charge 0 multiplicity 1
 C         3.329080         2.770200        -3.205677
 C         2.149233         2.544345        -2.381131
 C         2.246191         2.616349        -0.855082
 C         1.066191         1.966271        -0.116684
 C         0.311036         1.250468        -1.243948
 C         0.990331         1.544898        -2.533296
 O         0.927299         2.929895        -2.965501
 C         1.631255         0.756459         0.725648
 O         1.211778         0.288961         1.764437
 H         3.883391         3.720629        -2.890463
 H         3.915574         1.876420        -3.052453
 H         3.118686         3.072051        -4.188501
 H         3.144449         2.019649        -0.413882
 H         2.298190         3.669565        -0.637391
 H         0.551003         2.745409         0.379251
 H         0.325866         0.129935        -0.945963
 H        -0.842346         1.440595        -1.221487
 H         0.948232         0.827890        -3.458173
 H         2.320713         0.213066        -0.002809
