19
Iteration:  2882
 C         3.466845         2.647036        -2.788913
 C         2.089533         2.574936        -2.160199
 C         1.718005         2.895632        -0.698901
 C         0.804493         1.637736        -0.249437
 C         0.174164         1.134045        -1.548928
 C         1.106328         1.483646        -2.619316
 O         0.914699         2.825493        -3.062240
 C         1.782189         0.720202         0.542700
 O         1.744624         0.690471         1.752519
 H         4.032566         3.594782        -2.595537
 H         3.920344         1.809747        -2.194074
 H         3.422068         2.562429        -3.905093
 H         2.631509         2.850141        -0.082194
 H         1.226325         3.820238        -0.691365
 H         0.110544         1.988975         0.633836
 H        -0.071149         0.040303        -1.585533
 H        -0.810030         1.659230        -1.759700
 H         1.291046         0.800859        -3.573125
 H         2.584769         0.111640         0.006865
