19
Iteration:   747charge 0 multiplicity 1
 C         3.385539         2.354976        -3.188957
 C         2.120274         2.437793        -2.276272
 C         2.379376         2.350927        -0.838787
 C         0.957701         1.883874        -0.215610
 C         0.091590         1.385783        -1.386102
 C         0.890499         1.712521        -2.634731
 O         0.977996         3.290736        -2.728806
 C         1.378335         0.704889         0.601084
 O         1.613157         0.561052         1.810711
 H         4.195086         2.834301        -2.644780
 H         3.780377         1.264497        -3.126838
 H         3.313822         2.391398        -4.205314
 H         3.183968         1.582723        -0.706974
 H         2.553252         3.252014        -0.227649
 H         0.474045         2.657448         0.374013
 H        -0.040276         0.260237        -1.166772
 H        -0.984256         1.691623        -1.482434
 H         0.720097         1.261137        -3.681733
 H         1.488073        -0.160092        -0.132216
