19
Iteration:  4015
 C         3.268254         3.208349        -2.925325
 C         2.043053         2.656326        -2.275338
 C         1.706567         3.035562        -0.780182
 C         0.854699         1.762479        -0.186770
 C         0.763662         0.702678        -1.400215
 C         1.394652         1.411852        -2.668002
 O         0.893057         2.647260        -3.114771
 C         1.346586         1.206626         1.139869
 O         1.553122         0.018546         1.416118
 H         2.890043         4.188985        -3.353829
 H         3.982841         3.257416        -1.977227
 H         3.739599         2.545067        -3.779090
 H         2.680687         3.162181        -0.366325
 H         1.050915         3.932983        -0.822438
 H        -0.166154         2.039081        -0.030171
 H         1.411060        -0.208317        -1.157295
 H        -0.267678         0.295654        -1.564702
 H         1.895125         0.938098        -3.519947
 H         1.693672         1.969126         1.910260
