19
Iteration:  1307
 C         3.271378         2.951340        -3.192098
 C         2.113125         2.356291        -2.379441
 C         2.428373         1.785447        -0.980919
 C         1.078430         1.407181        -0.443386
 C         0.451423         0.801429        -1.684319
 C         0.814623         1.864838        -2.761028
 O         0.992140         3.284120        -2.206642
 C         1.296910         0.696920         0.804254
 O         1.323458         1.313839         1.908949
 H         3.843128         3.752670        -2.710109
 H         3.861158         1.988583        -3.497769
 H         2.906253         3.341274        -4.242472
 H         2.967407         0.832404        -1.030398
 H         2.977453         2.481740        -0.348953
 H         0.554682         2.312232        -0.036888
 H         0.860415        -0.177550        -1.967161
 H        -0.647034         0.638231        -1.645409
 H         0.752723         1.786623        -3.826357
 H         1.991664        -0.238515         0.769136
