19
Iteration:  2613
 C         3.140023         3.122875        -3.298397
 C         2.130215         2.499026        -2.361675
 C         2.626254         2.254480        -1.019543
 C         1.303107         1.633478        -0.383833
 C         0.699598         0.809760        -1.485400
 C         1.021258         1.608923        -2.711538
 O         0.664932         2.924339        -2.422032
 C         1.589097         0.834381         0.943453
 O         0.753325         0.891863         1.793283
 H         3.279243         4.255146        -3.044542
 H         4.177470         2.695243        -3.097401
 H         2.737992         2.846346        -4.249805
 H         3.516635         1.426975        -0.802637
 H         3.078619         3.058566        -0.350208
 H         0.584410         2.440286         0.028468
 H         1.417693        -0.046240        -1.542801
 H        -0.396460         0.365845        -1.422820
 H         0.871889         1.214877        -3.737312
 H         2.469231         0.151516         1.124469
