19
Iteration:  1224charge 0 multiplicity 1
 C         3.250549         2.888915        -3.410203
 C         2.184919         2.399949        -2.476790
 C         2.631844         1.997940        -0.973682
 C         1.204657         1.705392        -0.276154
 C         0.441752         1.043550        -1.485667
 C         0.883011         1.756994        -2.706767
 O         0.939408         3.188616        -2.472326
 C         1.190232         0.734669         0.812919
 O         1.166322         0.840367         2.091986
 H         3.571416         3.847245        -2.897900
 H         4.071532         2.250983        -3.546937
 H         2.734688         3.162780        -4.397442
 H         3.232983         1.032495        -1.039583
 H         3.180255         2.718768        -0.387064
 H         0.724526         2.669931        -0.057130
 H         0.896430        -0.018734        -1.455552
 H        -0.682727         0.897380        -1.535856
 H         0.408041         1.589685        -3.690542
 H         1.297503        -0.313126         0.346531
