19
Iteration:  2682
 C         3.249203         2.978195        -3.301026
 C         2.125334         2.562979        -2.373750
 C         2.233478         2.538700        -0.747362
 C         1.126247         1.608458        -0.301491
 C         0.550122         0.901895        -1.507010
 C         1.156670         1.536141        -2.777825
 O         0.815443         3.038631        -2.791420
 C         1.533302         0.621967         0.898037
 O         1.118508         0.760714         2.046809
 H         3.967209         3.787381        -2.990320
 H         3.833334         2.072896        -3.555814
 H         2.696392         3.208486        -4.276719
 H         3.312811         2.461240        -0.416079
 H         2.055552         3.528278        -0.518578
 H         0.401170         2.256588         0.063660
 H         0.830819        -0.216990        -1.452141
 H        -0.494157         0.948504        -1.499414
 H         1.042230         0.996309        -3.702129
 H         2.283006        -0.192733         0.631347
