19
Iteration:  2547
 C         2.959129         3.103638        -3.507337
 C         2.176785         2.556536        -2.382454
 C         2.701909         2.272286        -0.892288
 C         1.374818         1.671229        -0.346965
 C         0.852862         0.727437        -1.451415
 C         1.109330         1.605008        -2.643119
 O         0.772755         3.009685        -2.385582
 C         1.451246         0.857031         0.926544
 O         0.621736         0.775964         1.839792
 H         3.273313         4.241616        -3.352444
 H         4.006994         2.661508        -3.663730
 H         2.291662         2.955608        -4.375483
 H         3.304519         1.317895        -1.138909
 H         3.233189         3.143290        -0.423883
 H         0.568858         2.505805        -0.299734
 H         1.357805        -0.243993        -1.499400
 H        -0.297393         0.687513        -1.174027
 H         0.721129         1.168558        -3.610229
 H         2.265361         0.095375         0.889297
