19
Iteration:  4840charge 0 multiplicity 1
 C         3.405447         3.028460        -2.475569
 C         2.081426         2.536555        -2.015752
 C         1.402161         3.124292        -0.834278
 C         0.562172         1.915274        -0.153181
 C         0.263104         0.995353        -1.376274
 C         1.403523         1.150376        -2.333361
 O         1.060123         2.395525        -3.121421
 C         1.387459         1.173385         0.878160
 O         2.242753         0.305174         0.694313
 H         3.371031         4.091183        -2.317308
 H         4.212129         2.574163        -2.002597
 H         3.648328         2.644943        -3.532862
 H         2.012540         3.768185        -0.057875
 H         0.577732         3.900582        -1.115576
 H        -0.385010         2.256729         0.363467
 H        -0.072491        -0.162766        -1.110505
 H        -0.701953         1.376594        -1.792943
 H         1.909607         0.305137        -2.788209
 H         1.132504         1.528755         1.894080
