19
Iteration:   681
 C         3.276740         2.539714        -3.494352
 C         2.196515         2.472228        -2.381108
 C         2.510433         2.021990        -0.904005
 C         1.163432         1.619216        -0.307812
 C         0.224693         1.273573        -1.457585
 C         0.879434         1.948796        -2.691846
 O         0.991299         3.328518        -2.510858
 C         1.363398         0.580824         0.854735
 O         1.243838         0.816091         2.038535
 H         3.676739         3.604511        -3.595307
 H         4.182355         1.747778        -3.423732
 H         2.792361         2.317043        -4.440494
 H         3.128372         1.090592        -1.030685
 H         3.046574         2.920622        -0.440014
 H         0.885266         2.500812         0.313351
 H         0.386682         0.134890        -1.514614
 H        -0.913156         1.401621        -1.426737
 H         0.627898         1.588146        -3.772968
 H         1.620811        -0.457153         0.528626
