19
Iteration:  2227charge 0 multiplicity 1
 C         3.492607         2.556280        -2.915158
 C         2.067557         2.487238        -2.225337
 C         1.995857         2.930878        -0.787054
 C         0.971034         1.872391        -0.159927
 C         0.149103         1.184136        -1.366261
 C         0.968747         1.481582        -2.580607
 O         0.922282         2.971306        -2.901240
 C         1.719296         0.692071         0.518254
 O         1.528860         0.446239         1.629958
 H         3.606511         3.625805        -3.174656
 H         4.267619         2.046745        -2.251974
 H         3.601666         2.048922        -3.925402
 H         2.999540         2.890541        -0.376318
 H         1.667006         3.927897        -0.807532
 H         0.235646         2.396431         0.392043
 H         0.033909         0.078220        -1.215680
 H        -0.843593         1.630944        -1.446252
 H         1.066079         0.773263        -3.427949
 H         2.355099         0.055025        -0.204629
