19
Iteration:  4960charge 0 multiplicity 1
 C         3.396358         2.834244        -2.212635
 C         1.929552         2.577968        -2.146412
 C         1.209644         3.145047        -0.811073
 C         0.620005         1.820825        -0.189663
 C         0.308879         0.952139        -1.318513
 C         1.266926         1.291713        -2.429401
 O         1.117095         2.508630        -3.295704
 C         1.616268         1.280237         0.842084
 O         2.262995         0.245782         0.818398
 H         3.687340         3.896263        -2.296047
 H         3.838344         2.208291        -1.464548
 H         3.551348         2.225458        -3.207556
 H         1.903306         3.702426        -0.224388
 H         0.323570         3.983248        -1.051938
 H        -0.263452         2.025562         0.418858
 H         0.280124        -0.233138        -1.330450
 H        -0.676045         1.215377        -1.769116
 H         1.930927         0.563913        -2.809482
 H         1.782012         2.099928         1.539195
