19
Iteration:  1596
 C         3.447779         2.491444        -2.907567
 C         2.116507         2.418629        -2.293164
 C         2.046315         2.789206        -0.773163
 C         0.938922         1.824946        -0.156777
 C         0.171195         1.290805        -1.321530
 C         0.911251         1.589429        -2.623110
 O         0.938453         3.006098        -2.897194
 C         1.723826         0.700170         0.509520
 O         1.534286         0.462010         1.619005
 H         4.009667         3.501462        -2.678019
 H         4.208269         1.798092        -2.510672
 H         3.256461         2.138904        -3.892136
 H         3.012916         2.683798        -0.265958
 H         1.679340         3.744535        -0.538376
 H         0.348183         2.459244         0.480570
 H        -0.275384         0.257735        -1.129193
 H        -0.679800         2.024508        -1.488701
 H         0.616297         1.033158        -3.553534
 H         2.570893         0.220752        -0.160449
