19
Iteration:   653charge 0 multiplicity 1
 C         3.201813         2.601222        -3.490895
 C         2.135137         2.467431        -2.401126
 C         2.636723         1.942652        -1.021783
 C         1.289286         1.682339        -0.344571
 C         0.420131         1.074867        -1.435354
 C         0.801013         1.922105        -2.654882
 O         1.044697         3.329100        -2.346261
 C         1.264608         0.757485         0.819884
 O         1.095517         0.843564         2.025203
 H         3.687542         3.537637        -3.353233
 H         3.892441         1.880165        -3.591736
 H         2.629548         2.508059        -4.461651
 H         2.990338         0.958370        -1.310411
 H         3.371981         2.570736        -0.657680
 H         0.899372         2.627832        -0.025735
 H         0.630135         0.016483        -1.541823
 H        -0.630963         1.030251        -1.232145
 H         0.403990         1.708436        -3.628548
 H         1.468723        -0.336217         0.348033
