19
Iteration:  4919
 C         3.479506         2.808528        -2.321474
 C         2.049723         2.506162        -1.932505
 C         1.280034         3.146524        -0.823877
 C         0.518080         1.819346        -0.228502
 C         0.251665         0.887615        -1.374268
 C         1.293710         1.301036        -2.429849
 O         1.043446         2.484446        -3.097762
 C         1.510273         1.304427         0.739211
 O         2.310989         0.364546         0.691865
 H         3.635869         3.827353        -2.631452
 H         3.982221         2.788510        -1.397365
 H         4.108576         2.246225        -2.995726
 H         1.913817         3.500550        -0.003732
 H         0.501682         3.781725        -1.224527
 H        -0.463332         2.134171         0.230672
 H         0.284083        -0.144666        -0.950695
 H        -0.809852         1.076237        -1.644024
 H         1.549505         0.515970        -3.095237
 H         1.640820         1.991594         1.642073
