19
Iteration:   593
 C         3.099896         2.788515        -3.576177
 C         2.225073         2.439929        -2.419140
 C         2.755254         1.728539        -1.120726
 C         1.409870         1.467022        -0.323635
 C         0.317685         1.137030        -1.466497
 C         0.840149         1.907294        -2.608401
 O         0.977885         3.296568        -2.290181
 C         1.480577         0.786501         0.957473
 O         0.797105         0.963977         1.960949
 H         4.053039         3.298587        -3.251544
 H         3.483608         1.794204        -4.104646
 H         2.646538         3.525728        -4.165301
 H         3.320340         0.743945        -1.369080
 H         3.632466         2.313249        -0.669190
 H         0.914701         2.441299        -0.063816
 H         0.298250         0.082079        -1.600011
 H        -0.671003         1.577455        -1.174512
 H         0.464653         1.536863        -3.647541
 H         2.472199         0.096414         1.058593
