19
Iteration:  3075
 C         3.409975         2.747595        -2.960601
 C         2.088189         2.428745        -2.266927
 C         1.832832         2.776913        -0.762264
 C         0.860704         1.751437        -0.261994
 C         0.348521         1.004893        -1.473681
 C         1.067770         1.501624        -2.667604
 O         0.932611         2.961355        -2.963923
 C         1.750330         0.916681         0.716755
 O         1.504810         0.485400         1.824570
 H         3.621109         3.824721        -2.881160
 H         4.336764         2.271940        -2.607023
 H         3.357566         2.610811        -4.161572
 H         2.779897         2.778828        -0.225974
 H         1.480166         3.834646        -0.784916
 H         0.186716         2.110967         0.446124
 H         0.223595        -0.126077        -1.421651
 H        -0.747431         1.086099        -1.661034
 H         1.240905         0.785236        -3.580063
 H         2.798065         0.746802         0.254035
