19
Iteration:  2826
 C         3.479310         2.779329        -2.829339
 C         2.105217         2.446635        -2.176139
 C         1.860887         2.803721        -0.782239
 C         0.823268         1.811111        -0.238928
 C         0.227354         1.005432        -1.457972
 C         1.072050         1.458503        -2.649180
 O         0.889910         2.901894        -3.059946
 C         1.518266         0.728340         0.604829
 O         1.769110         0.613941         1.780963
 H         3.640769         3.816004        -2.503474
 H         4.465212         2.369665        -2.473352
 H         3.510572         2.624864        -3.992688
 H         2.767008         2.785169        -0.116305
 H         1.522354         3.771573        -0.701860
 H         0.102564         2.470760         0.396769
 H         0.438409        -0.092219        -1.268494
 H        -0.789176         1.315072        -1.726358
 H         1.367131         0.828178        -3.639619
 H         1.975804         0.068222        -0.137249
