19
Iteration:   150charge 0 multiplicity 1
 C         3.243307         2.486684        -3.426505
 C         2.213476         2.369561        -2.357903
 C         2.474411         2.076107        -0.873625
 C         1.119107         1.836515        -0.131123
 C         0.227460         1.303912        -1.273146
 C         0.898351         1.902088        -2.582390
 O         1.160002         3.337358        -2.675054
 C         1.147560         1.251818         1.231751
 O         1.354500         0.049306         1.288038
 H         3.714701         3.513663        -3.262635
 H         3.994096         1.691365        -3.384680
 H         2.787254         2.393681        -4.359347
 H         3.267391         1.226155        -0.689706
 H         3.017793         2.928876        -0.389176
 H         0.812371         2.850892         0.183242
 H         0.393075         0.102782        -1.359972
 H        -0.876035         1.558513        -1.253974
 H         0.384822         1.553748        -3.546978
 H         0.971244         1.880868         2.232828
