19
Iteration:   770
 C         3.288793         2.268299        -3.153197
 C         2.165593         2.456955        -2.200475
 C         2.245802         2.532137        -0.746519
 C         0.959235         1.846742        -0.165603
 C         0.143415         1.420843        -1.394127
 C         0.884128         1.834817        -2.614916
 O         1.059007         3.197204        -2.881496
 C         1.386166         0.588001         0.583726
 O         1.676481         0.555552         1.763213
 H         4.187451         2.710427        -2.787486
 H         3.592753         1.184295        -3.183054
 H         3.015138         2.395562        -4.103544
 H         3.037904         1.796199        -0.454246
 H         2.540169         3.473584        -0.283114
 H         0.365953         2.366204         0.546452
 H        -0.179143         0.345538        -1.350926
 H        -0.838162         1.942931        -1.477252
 H         0.745942         1.301498        -3.602708
 H         1.476358        -0.303511        -0.085498
