19
Iteration:   402
 C         3.191231         2.066588        -3.412075
 C         2.208014         2.398360        -2.366234
 C         2.536054         2.505300        -0.875112
 C         1.244679         1.906599        -0.091155
 C         0.095873         1.641471        -1.174707
 C         0.703383         2.000046        -2.501366
 O         1.131204         3.379260        -2.812318
 C         1.482570         0.573456         0.650714
 O         1.220874         0.206731         1.791837
 H         4.141363         2.619126        -3.122391
 H         3.411307         1.013257        -3.386872
 H         2.880956         2.197916        -4.535691
 H         3.458578         1.861438        -0.744249
 H         2.840366         3.509924        -0.491657
 H         0.831399         2.658848         0.559504
 H        -0.104900         0.646699        -1.140137
 H        -0.787979         2.231456        -1.070781
 H         0.533003         1.379612        -3.370521
 H         2.194824         0.025333        -0.091757
