19
Iteration:  3366
 C         3.177920         3.084060        -3.201498
 C         2.114415         2.561017        -2.410691
 C         2.319252         2.485483        -0.914190
 C         1.199902         1.659838        -0.375561
 C         0.844438         0.696846        -1.539630
 C         1.094065         1.559555        -2.702729
 O         0.664389         2.901543        -2.584340
 C         1.596000         0.893297         0.928089
 O         0.889704         0.736296         1.906875
 H         3.292713         4.178524        -3.188149
 H         4.066305         2.568562        -2.946835
 H         3.248665         2.684179        -4.273105
 H         3.282950         2.101300        -0.633838
 H         2.414465         3.414195        -0.464267
 H         0.233211         2.194810        -0.069669
 H         1.434842        -0.243818        -1.605787
 H        -0.256140         0.440130        -1.441873
 H         1.120628         1.153201        -3.758567
 H         2.691934         0.637493         0.860557
