19
Iteration:  3859
 C         3.216406         3.286913        -3.094539
 C         2.101094         2.640393        -2.306197
 C         2.051823         2.629591        -0.719596
 C         0.870259         1.649415        -0.373376
 C         1.021293         0.589267        -1.469669
 C         1.339082         1.451892        -2.651179
 O         0.721266         2.769171        -2.754297
 C         0.815654         1.190847         1.057509
 O         1.681142         0.374233         1.487373
 H         3.140955         4.380531        -3.158147
 H         4.224470         3.253047        -2.658481
 H         3.301364         2.612537        -4.086179
 H         3.061401         2.405803        -0.373863
 H         1.896423         3.591535        -0.287895
 H         0.038652         2.210061        -0.648235
 H         1.856627        -0.083705        -1.094635
 H         0.132049        -0.127430        -1.716431
 H         1.402147         1.023905        -3.661672
 H         0.096381         1.773765         1.666075
