19
Iteration:   707charge 0 multiplicity 1
 C         3.259506         2.521306        -3.305209
 C         2.166728         2.319466        -2.436423
 C         2.420031         2.173133        -0.870931
 C         1.068472         1.680750        -0.264358
 C         0.096677         1.271828        -1.388006
 C         0.818296         1.884250        -2.654827
 O         1.169219         3.311294        -2.633761
 C         1.423143         0.570525         0.714593
 O         1.391244         0.768406         1.944217
 H         3.656404         3.519974        -3.093033
 H         3.944946         1.782824        -3.018459
 H         3.088721         2.633457        -4.468639
 H         3.238848         1.510418        -0.533808
 H         2.649092         3.176788        -0.673821
 H         0.717789         2.468388         0.366322
 H         0.001727         0.226201        -1.467614
 H        -0.869764         1.738640        -1.316228
 H         0.405824         1.640770        -3.636506
 H         1.747447        -0.400189         0.380304
