19
Iteration:  2649charge 0 multiplicity 1
 C         3.216415         3.075880        -3.319518
 C         2.154962         2.544832        -2.404695
 C         2.457695         2.397066        -0.882908
 C         1.149895         1.647893        -0.365755
 C         0.631046         0.752709        -1.479911
 C         1.040595         1.562314        -2.705210
 O         0.780358         3.047686        -2.651552
 C         1.477411         0.781993         0.935935
 O         0.974246         0.757593         2.018667
 H         3.692197         4.074223        -3.076521
 H         3.967609         2.291900        -3.532196
 H         2.764954         3.306012        -4.331654
 H         3.416364         1.744487        -0.758334
 H         2.499044         3.327665        -0.376216
 H         0.409812         2.357406        -0.198920
 H         1.292085        -0.194325        -1.496235
 H        -0.363139         0.413837        -1.396127
 H         0.878199         1.138088        -3.667758
 H         2.387044         0.125462         0.674535
