19
Iteration:   871
 C         3.375606         2.190387        -3.022498
 C         2.157332         2.323868        -2.190669
 C         2.178564         2.754676        -0.718800
 C         0.921914         2.025824        -0.109837
 C        -0.014180         1.621582        -1.294677
 C         0.922775         1.681708        -2.549243
 O         1.071481         3.071175        -2.891308
 C         1.468074         0.653959         0.428447
 O         1.730554         0.317616         1.566037
 H         3.818447         3.171750        -3.248270
 H         4.057373         1.562762        -2.477859
 H         3.264734         1.801833        -4.063254
 H         2.924844         2.305177         0.014613
 H         2.079794         3.797828        -0.581242
 H         0.459782         2.750248         0.587361
 H        -0.471269         0.608695        -1.187875
 H        -0.850222         2.326929        -1.457600
 H         0.728120         1.008869        -3.345276
 H         1.627717         0.030981        -0.522785
