19
Iteration:  1310charge 0 multiplicity 1
 C         3.260770         2.937456        -3.182673
 C         2.124369         2.352388        -2.387817
 C         2.412901         1.798894        -0.990595
 C         1.086619         1.420540        -0.423175
 C         0.454720         0.789074        -1.662835
 C         0.825950         1.883846        -2.785660
 O         0.985494         3.275620        -2.222626
 C         1.299029         0.731157         0.840178
 O         1.330455         1.281612         1.882971
 H         3.901483         3.718669        -2.678262
 H         3.854397         2.136118        -3.514785
 H         3.016606         3.370453        -4.201203
 H         2.967603         0.776519        -0.970455
 H         2.891813         2.493978        -0.348599
 H         0.607610         2.286820         0.019187
 H         0.834681        -0.139899        -2.008210
 H        -0.637888         0.592237        -1.595272
 H         0.640637         1.780812        -3.855336
 H         1.865034        -0.246268         0.754043
