19
Iteration:  2897charge 0 multiplicity 1
 C         3.382052         2.587100        -2.763118
 C         2.029356         2.558531        -2.210640
 C         1.689809         2.878231        -0.719071
 C         0.861107         1.708734        -0.214721
 C         0.211457         1.094390        -1.504585
 C         1.123187         1.483143        -2.682848
 O         0.999564         2.936412        -3.118588
 C         1.691466         0.708257         0.593695
 O         1.804962         0.622089         1.796172
 H         3.839510         3.579184        -2.668245
 H         4.166978         1.924561        -2.388576
 H         3.339048         2.314955        -3.764573
 H         2.436177         3.262674        -0.090289
 H         0.873275         3.730312        -0.689199
 H         0.014397         2.044764         0.331737
 H         0.158240         0.026203        -1.368671
 H        -0.760256         1.592006        -1.670031
 H         1.471085         0.815689        -3.377577
 H         2.319298         0.164664        -0.117640
