19
Iteration:  4084
 C         3.191279         3.361604        -2.975260
 C         2.090111         2.647809        -2.227387
 C         1.911504         2.850149        -0.725216
 C         0.826797         1.801214        -0.290251
 C         0.783960         0.717227        -1.296097
 C         1.434442         1.294803        -2.575092
 O         0.878259         2.528916        -2.983158
 C         1.124629         1.264223         1.050905
 O         1.597452         0.144063         1.208859
 H         3.052864         4.498202        -2.742479
 H         4.237054         2.968321        -2.463279
 H         3.156176         3.242988        -4.038536
 H         2.901763         2.571080        -0.241276
 H         1.481269         3.931077        -0.529221
 H        -0.093065         2.396169        -0.091955
 H         1.218037        -0.229207        -1.116248
 H        -0.244400         0.515652        -1.449049
 H         1.822227         0.584294        -3.345757
 H         1.085191         2.086016         1.871813
