19
Iteration:   750
 C         3.371124         2.309208        -3.148288
 C         2.092309         2.461575        -2.292774
 C         2.358772         2.369196        -0.825301
 C         0.953755         1.891930        -0.197631
 C         0.084571         1.385476        -1.387410
 C         0.922495         1.702122        -2.629981
 O         0.997625         3.297361        -2.737733
 C         1.379403         0.688430         0.600644
 O         1.622261         0.558410         1.794243
 H         4.229988         2.916260        -2.741883
 H         3.682637         1.265721        -3.122183
 H         3.252706         2.546783        -4.337615
 H         3.160085         1.587514        -0.779899
 H         2.517136         3.248968        -0.282310
 H         0.510548         2.683620         0.357451
 H         0.014286         0.332654        -1.233029
 H        -0.953873         1.712640        -1.415695
 H         0.827099         1.145013        -3.591569
 H         1.474654        -0.195092        -0.149551
