19
Iteration:  2122charge 0 multiplicity 1
 C         3.462378         2.580270        -2.914869
 C         2.070041         2.566696        -2.283223
 C         2.033868         2.741328        -0.818965
 C         0.999582         1.793697        -0.188018
 C         0.218826         1.181717        -1.377695
 C         1.015063         1.595678        -2.552980
 O         0.853567         2.990235        -2.990356
 C         1.679185         0.790364         0.546405
 O         1.488636         0.422634         1.743993
 H         4.082295         3.449931        -2.747178
 H         4.006392         1.804858        -2.461309
 H         3.223172         2.359952        -4.008773
 H         3.101323         2.706482        -0.474843
 H         1.669448         3.788882        -0.702358
 H         0.311284         2.358198         0.479440
 H         0.328942         0.127539        -1.229218
 H        -0.914370         1.395407        -1.453529
 H         1.150993         0.862248        -3.256636
 H         2.391957         0.156253        -0.106576
