19
Iteration:  4747charge 0 multiplicity 1
 C         3.423314         2.976484        -2.586913
 C         1.997819         2.623706        -2.158270
 C         1.345986         3.092164        -0.870432
 C         0.727823         1.808798        -0.258965
 C         0.498374         0.778862        -1.340517
 C         1.317989         1.338326        -2.444249
 O         0.964482         2.630072        -3.125062
 C         1.568902         1.277573         0.916018
 O         1.911587         0.121065         1.080009
 H         3.536379         4.047090        -2.717458
 H         4.169175         2.658959        -1.790383
 H         3.889871         2.426855        -3.361864
 H         2.026503         3.542308        -0.265733
 H         0.630141         3.812459        -1.210776
 H        -0.159179         2.254698         0.104357
 H         0.905463        -0.180649        -1.126360
 H        -0.566693         0.578141        -1.623209
 H         1.896333         0.746974        -3.195472
 H         1.683797         1.927083         1.822617
