19
Iteration:  1537charge 0 multiplicity 1
 C         3.425249         2.527918        -3.003604
 C         2.108773         2.539325        -2.301187
 C         2.060511         2.759950        -0.674226
 C         0.939031         1.884048        -0.106076
 C         0.087519         1.329672        -1.452168
 C         1.032333         1.584135        -2.627702
 O         0.940526         2.974337        -3.005847
 C         1.453948         0.579329         0.591761
 O         1.743611         0.462254         1.756428
 H         3.928456         3.319316        -2.536082
 H         3.962515         1.557791        -2.986403
 H         3.417760         2.985818        -4.037154
 H         3.094526         2.531097        -0.376638
 H         1.869916         3.794785        -0.338177
 H         0.418119         2.540181         0.635401
 H        -0.102229         0.229010        -1.274243
 H        -0.908836         1.764509        -1.732379
 H         1.153197         0.772379        -3.316568
 H         1.518149        -0.321022        -0.142589
