19
Iteration:   709
 C         3.278309         2.508421        -3.296797
 C         2.156488         2.304955        -2.426055
 C         2.400351         2.178357        -0.880379
 C         1.060414         1.685370        -0.267866
 C         0.089040         1.290672        -1.378672
 C         0.813173         1.867763        -2.664681
 O         1.164644         3.313147        -2.629787
 C         1.425603         0.585869         0.707931
 O         1.403665         0.755645         1.932356
 H         3.653071         3.505502        -3.103841
 H         3.944816         1.782656        -3.000296
 H         3.112143         2.698936        -4.399011
 H         3.248798         1.588427        -0.537778
 H         2.683916         3.208163        -0.685020
 H         0.740912         2.486551         0.411866
 H         0.087060         0.202992        -1.435104
 H        -0.863753         1.757721        -1.365142
 H         0.458141         1.659784        -3.616096
 H         1.742614        -0.422104         0.410346
