19
Iteration:  3770charge 0 multiplicity 1
 C         3.196023         3.365291        -2.897099
 C         2.131897         2.520804        -2.235264
 C         1.964689         2.685944        -0.706031
 C         0.844692         1.798546        -0.330272
 C         0.619228         0.717773        -1.497936
 C         1.382869         1.313198        -2.661768
 O         0.852064         2.627790        -3.043636
 C         0.925695         1.045716         1.100348
 O         1.904076         0.462599         1.452000
 H         3.160986         4.351111        -2.347636
 H         4.132820         3.000522        -2.518801
 H         3.078774         3.552244        -4.060137
 H         2.966489         2.523812        -0.168252
 H         1.863695         3.712783        -0.403900
 H        -0.018902         2.390903        -0.307929
 H         1.003853        -0.351075        -1.389888
 H        -0.484540         0.793298        -1.885659
 H         1.937150         0.797128        -3.499969
 H         0.072000         1.004148         1.796278
