19
Iteration:  3369charge 0 multiplicity 1
 C         3.185024         3.072585        -3.216373
 C         2.099702         2.551874        -2.393396
 C         2.289306         2.506201        -0.914386
 C         1.193186         1.650730        -0.356052
 C         0.821619         0.695425        -1.537018
 C         1.139218         1.555748        -2.724775
 O         0.665889         2.912855        -2.588671
 C         1.596443         0.888403         0.921188
 O         0.914789         0.740621         1.900130
 H         3.315027         4.114698        -3.202170
 H         4.075432         2.602398        -2.861908
 H         3.167852         2.709070        -4.245362
 H         3.215717         1.989536        -0.517428
 H         2.402748         3.516452        -0.400091
 H         0.211789         2.225825        -0.125491
 H         1.418509        -0.204168        -1.645474
 H        -0.220452         0.505501        -1.516852
 H         1.059397         1.093749        -3.684695
 H         2.717694         0.555231         0.908601
