19
Iteration:  4137charge 0 multiplicity 1
 C         3.278843         3.138299        -3.025117
 C         2.032461         2.738118        -2.225393
 C         1.935683         2.907795        -0.712348
 C         0.934588         1.687683        -0.406133
 C         0.966450         0.584781        -1.455945
 C         1.421908         1.468727        -2.670075
 O         0.693760         2.700208        -2.871392
 C         0.997640         1.192752         1.062596
 O         1.615398         0.244357         1.455906
 H         3.535422         4.171102        -2.665761
 H         4.152727         2.447640        -2.730204
 H         2.996060         3.065420        -4.009260
 H         2.804924         2.684532        -0.264682
 H         1.440818         3.830390        -0.384949
 H         0.038995         2.230987        -0.376138
 H         1.781559        -0.178820        -1.332118
 H         0.112871        -0.071462        -1.487812
 H         1.630927         0.926131        -3.609900
 H         0.325554         1.755837         1.714385
