19
Iteration:  2023
 C         3.364741         2.863292        -3.139367
 C         2.110156         2.552920        -2.390736
 C         2.265246         2.477938        -0.836366
 C         1.031830         1.759737        -0.158811
 C         0.389880         1.084938        -1.425604
 C         1.043774         1.499555        -2.731829
 O         0.812647         3.064242        -2.862261
 C         1.545011         0.685569         0.748191
 O         1.292714         0.595901         1.923172
 H         3.631133         3.917428        -3.021562
 H         4.124307         2.226409        -2.794465
 H         3.136148         2.845681        -4.236082
 H         3.110846         1.950451        -0.611111
 H         2.456462         3.424290        -0.400189
 H         0.511271         2.474011         0.456149
 H         0.396997         0.033196        -1.310553
 H        -0.724122         1.184400        -1.333409
 H         1.005758         0.891671        -3.610548
 H         2.224561         0.019409         0.136471
