19
Iteration:  2610charge 0 multiplicity 1
 C         3.137190         3.140494        -3.318922
 C         2.125412         2.507234        -2.378259
 C         2.637924         2.220536        -0.988286
 C         1.331096         1.604053        -0.384799
 C         0.710327         0.795270        -1.474058
 C         1.019293         1.618502        -2.721751
 O         0.665884         2.936217        -2.421931
 C         1.579091         0.846736         0.960050
 O         0.733997         0.891663         1.794260
 H         3.200738         4.174300        -3.100559
 H         4.122330         2.740922        -3.114362
 H         2.821844         2.900068        -4.350543
 H         3.536490         1.574853        -0.802338
 H         3.085168         3.099383        -0.325100
 H         0.664065         2.453267        -0.002497
 H         1.323495        -0.102537        -1.519925
 H        -0.346843         0.410271        -1.359268
 H         0.798092         1.196468        -3.769294
 H         2.456256         0.134837         1.102227
