19
Iteration:   660charge 0 multiplicity 1
 C         3.186154         2.590624        -3.495739
 C         2.126829         2.475641        -2.394539
 C         2.620900         1.961819        -1.031858
 C         1.233182         1.693244        -0.267991
 C         0.446753         1.086288        -1.479815
 C         0.818305         1.899638        -2.655353
 O         1.032195         3.348760        -2.373004
 C         1.264891         0.723275         0.833398
 O         1.135778         0.823965         2.028288
 H         3.733924         3.576177        -3.570617
 H         3.953198         1.683841        -3.350409
 H         2.758444         2.483691        -4.481858
 H         3.018287         0.953680        -1.382143
 H         3.426075         2.564121        -0.501208
 H         0.797246         2.662284         0.035519
 H         0.493658         0.016524        -1.685978
 H        -0.634509         1.393007        -1.292916
 H         0.489449         1.624949        -3.751639
 H         1.482744        -0.248104         0.462990
