19
Iteration:  3601charge 0 multiplicity 1
 C         3.372501         3.070428        -2.770776
 C         2.133740         2.529907        -2.111378
 C         1.743403         2.753977        -0.713248
 C         0.763547         1.582460        -0.340793
 C         0.251364         0.917028        -1.543405
 C         1.273773         1.350666        -2.665835
 O         0.963519         2.696055        -2.979244
 C         1.341143         0.634780         0.632760
 O         1.961287         0.972889         1.601016
 H         3.394324         4.096635        -2.285322
 H         4.417844         2.610828        -2.453478
 H         3.213887         3.124580        -3.880545
 H         2.592972         2.825044        -0.022409
 H         1.356295         3.845768        -0.544094
 H        -0.022321         2.081592         0.375849
 H         0.200586        -0.243629        -1.294397
 H        -0.767103         1.255849        -1.786493
 H         1.706917         0.659178        -3.457105
 H         1.153513        -0.419272         0.566537
