19
Iteration:  1390
 C         3.274704         2.788489        -3.331781
 C         2.190255         2.437120        -2.337249
 C         2.381301         2.297311        -0.791068
 C         0.973435         1.744847        -0.304178
 C         0.323808         1.055933        -1.480517
 C         0.990756         1.686275        -2.723493
 O         0.971345         3.161906        -2.685496
 C         1.221288         0.664328         0.834535
 O         1.522532         0.716211         1.943271
 H         3.854837         3.683285        -3.115284
 H         4.097673         2.119300        -3.447601
 H         2.814352         2.973646        -4.247942
 H         3.229058         1.669774        -0.430288
 H         2.486422         3.301681        -0.229513
 H         0.441005         2.524281         0.223609
 H         0.479440        -0.016816        -1.281711
 H        -0.708073         1.318138        -1.611121
 H         0.877495         1.281604        -3.794812
 H         0.842036        -0.373136         0.458528
