19
Iteration:  4547charge 0 multiplicity 1
 C         2.994466         3.621201        -3.070256
 C         2.134989         2.674731        -2.245761
 C         2.302798         2.552504        -0.800692
 C         0.961165         1.707945        -0.430293
 C         1.014395         0.562157        -1.491690
 C         1.514021         1.338056        -2.682286
 O         0.724058         2.561794        -2.735782
 C         0.988217         1.308656         1.017520
 O         1.288526         0.252337         1.584827
 H         3.184917         4.601647        -2.617776
 H         3.949831         3.135774        -3.235269
 H         2.619565         3.919953        -4.168494
 H         3.222916         1.982084        -0.556500
 H         2.373447         3.549825        -0.246954
 H        -0.019060         2.149440        -0.502345
 H         1.802712        -0.252600        -1.246401
 H        -0.017691         0.162300        -1.581095
 H         1.651635         0.915121        -3.647994
 H         0.678218         2.207426         1.687187
