19
Iteration:  2668
 C         3.202221         2.989303        -3.385215
 C         2.182217         2.508633        -2.387357
 C         2.292287         2.531231        -0.870011
 C         1.121951         1.621476        -0.167814
 C         0.659702         0.862564        -1.556255
 C         1.066210         1.610685        -2.811267
 O         0.836367         2.995985        -2.727468
 C         1.531738         0.699156         0.962815
 O         1.042744         0.747081         2.059558
 H         3.681747         3.850048        -2.793594
 H         4.028558         2.270233        -3.609446
 H         2.727714         3.429165        -4.240448
 H         3.168900         1.885336        -0.566910
 H         2.123579         3.509220        -0.471914
 H         0.285230         2.163265         0.316748
 H         1.044908        -0.170376        -1.642787
 H        -0.477815         0.870220        -1.589282
 H         1.110307         1.255121        -3.803563
 H         2.128985        -0.209224         0.714799
