19
Iteration:  4012
 C         3.263665         3.185379        -2.920127
 C         2.057442         2.688751        -2.255200
 C         1.693221         3.055858        -0.779578
 C         0.862733         1.769357        -0.225541
 C         0.790940         0.723648        -1.390587
 C         1.378725         1.387843        -2.685466
 O         0.879381         2.644828        -3.116984
 C         1.341224         1.199048         1.172564
 O         1.554667        -0.005950         1.421306
 H         2.981251         4.147353        -3.366025
 H         3.913337         3.196660        -2.068421
 H         3.784981         2.550577        -3.826542
 H         2.663894         3.301477        -0.390791
 H         1.076442         3.882710        -0.765357
 H        -0.205308         2.044971        -0.045585
 H         1.474237        -0.166556        -1.169701
 H        -0.288963         0.341173        -1.640730
 H         1.883710         0.916548        -3.502575
 H         1.694263         2.022831         1.924388
