19
Iteration:  2791charge 0 multiplicity 1
 C         3.392002         2.733588        -2.964569
 C         2.045934         2.573227        -2.172218
 C         1.865829         2.868329        -0.670555
 C         0.989131         1.646467        -0.233522
 C         0.256185         1.091018        -1.576476
 C         1.188973         1.525158        -2.715114
 O         0.895825         2.907231        -3.021336
 C         1.610965         0.529586         0.670078
 O         1.591275         0.733241         1.870384
 H         3.447036         3.760757        -3.348913
 H         4.259551         2.308517        -2.468750
 H         3.276875         2.230688        -4.017427
 H         2.895091         2.640513        -0.199114
 H         1.509064         3.791619        -0.414486
 H         0.265361         2.083881         0.406129
 H         0.030387        -0.000933        -1.525238
 H        -0.732261         1.405270        -1.757588
 H         1.437166         0.854997        -3.551833
 H         2.211360        -0.313578         0.271975
