19
Iteration:   404charge 0 multiplicity 1
 C         3.179992         2.074564        -3.405950
 C         2.202526         2.399753        -2.397186
 C         2.534716         2.480126        -0.876227
 C         1.234521         1.898545        -0.087582
 C         0.096683         1.654027        -1.167583
 C         0.731663         1.975137        -2.522519
 O         1.120853         3.391413        -2.794077
 C         1.509466         0.576810         0.643980
 O         1.204755         0.216613         1.784210
 H         4.082998         2.591190        -3.135969
 H         3.383921         1.014904        -3.314157
 H         2.907654         2.204793        -4.524575
 H         3.541477         1.874275        -0.691718
 H         2.897721         3.502133        -0.481627
 H         0.808113         2.669947         0.539352
 H        -0.147527         0.606383        -1.154691
 H        -0.788776         2.259421        -0.988778
 H         0.579265         1.389507        -3.303812
 H         2.223426         0.072824         0.006906
