19
Iteration:  1090
 C         3.349681         2.382161        -3.237379
 C         2.163188         2.439693        -2.310694
 C         2.299242         2.764074        -0.815849
 C         1.236740         1.954072        -0.128705
 C         0.077499         1.400216        -1.281689
 C         0.935081         1.651088        -2.484593
 O         0.983762         3.077946        -2.843506
 C         1.635206         0.670627         0.599258
 O         1.177214         0.288179         1.685985
 H         3.926384         3.303729        -3.330011
 H         4.077141         1.658605        -3.006877
 H         2.956945         2.145474        -4.244230
 H         3.275488         2.453187        -0.428792
 H         2.336630         3.799592        -0.534982
 H         0.614356         2.581983         0.497125
 H        -0.048444         0.329423        -1.035323
 H        -0.785803         2.129030        -1.274228
 H         0.764105         1.117553        -3.392420
 H         2.517251         0.087974         0.216311
