19
Iteration:  3293
 C         2.861088         3.269171        -3.558762
 C         2.200026         2.586263        -2.332882
 C         2.677652         2.371204        -0.895308
 C         1.427960         1.664275        -0.255996
 C         0.920930         0.704620        -1.378043
 C         1.210330         1.510747        -2.654783
 O         0.735025         2.801092        -2.425931
 C         1.478973         0.919371         0.999876
 O         0.526129         0.715833         1.698511
 H         3.255270         4.181855        -3.217028
 H         3.717098         2.774545        -4.022940
 H         2.253995         3.519020        -4.460159
 H         3.664358         1.797744        -0.821411
 H         3.026263         3.388991        -0.377774
 H         0.572576         2.413979        -0.217097
 H         1.086066        -0.349909        -1.386461
 H        -0.168969         0.734860        -1.352125
 H         1.101942         1.066533        -3.641186
 H         2.535463         0.500800         1.095643
