19
Iteration:  3497charge 0 multiplicity 1
 C         3.443907         2.917272        -2.832289
 C         2.071519         2.472589        -2.144183
 C         1.758239         2.672822        -0.694128
 C         0.736016         1.553322        -0.288190
 C         0.341047         0.714777        -1.680016
 C         1.196498         1.492609        -2.766239
 O         0.866163         2.932988        -2.918760
 C         1.582719         0.741184         0.652643
 O         1.761137         1.018397         1.824609
 H         3.658757         4.035297        -2.695406
 H         4.226793         2.394020        -2.303020
 H         3.551783         2.652089        -4.025335
 H         2.785778         2.423972        -0.213726
 H         1.354538         3.595758        -0.555087
 H        -0.185971         1.962271         0.242653
 H         0.508803        -0.391886        -1.605419
 H        -0.812558         0.838733        -1.837735
 H         1.581022         1.089791        -3.686033
 H         2.315717         0.026244         0.245006
