19
Iteration:  4126charge 0 multiplicity 1
 C         3.225938         3.189687        -3.005252
 C         2.028459         2.697714        -2.256030
 C         1.914343         2.876323        -0.741879
 C         0.846192         1.746759        -0.262263
 C         1.002892         0.710130        -1.465536
 C         1.407674         1.379339        -2.656365
 O         0.758465         2.686668        -2.904070
 C         0.987730         1.177968         1.062299
 O         1.636939         0.174130         1.443145
 H         3.761803         4.175224        -3.008689
 H         4.056349         2.369523        -2.882628
 H         3.095287         3.131932        -4.027133
 H         2.823302         2.865746        -0.293037
 H         1.599164         3.924433        -0.551328
 H        -0.130469         2.108242        -0.401512
 H         1.818690         0.035210        -1.108435
 H         0.051461         0.241496        -1.663371
 H         1.799372         0.911928        -3.575898
 H         0.415060         1.715500         1.807224
