19
Iteration:  1279
 C         3.212491         2.938309        -3.314300
 C         2.190127         2.452796        -2.301025
 C         2.518080         1.785416        -0.951402
 C         1.217326         1.322415        -0.452543
 C         0.369975         0.842049        -1.708370
 C         0.903319         1.926559        -2.755281
 O         0.919877         3.222924        -2.211529
 C         1.330588         0.661699         0.847739
 O         1.217674         1.322385         1.922202
 H         3.708440         3.921568        -3.148937
 H         3.851949         2.114646        -3.278711
 H         2.656980         2.868260        -4.219427
 H         3.180150         0.865951        -1.094169
 H         3.021881         2.405115        -0.203965
 H         0.700168         2.206248        -0.079038
 H         0.560163        -0.191770        -2.102732
 H        -0.711647         1.040430        -1.571468
 H         0.856498         1.898245        -3.872234
 H         1.641885        -0.359331         0.880608
