19
Iteration:  3614
 C         3.390964         3.118100        -2.734240
 C         2.118896         2.453871        -2.143093
 C         1.753356         2.692777        -0.622996
 C         0.704600         1.660691        -0.286657
 C         0.284671         0.892673        -1.585200
 C         1.315123         1.357988        -2.603576
 O         0.919060         2.706128        -3.019389
 C         1.327202         0.656318         0.650225
 O         2.026467         1.002286         1.559457
 H         3.507979         4.216712        -2.587230
 H         4.320121         2.518945        -2.518441
 H         3.322730         3.044305        -3.754560
 H         2.675821         2.439004         0.045642
 H         1.284502         3.692301        -0.600929
 H        -0.226661         1.943952         0.200740
 H         0.146862        -0.260234        -1.512859
 H        -0.682677         1.228383        -1.998180
 H         1.547548         0.783155        -3.439852
 H         0.838981        -0.315130         0.451180
