19
Iteration:   967charge 0 multiplicity 1
 C         3.423565         2.076520        -2.969448
 C         2.124529         2.363150        -2.274970
 C         2.057453         2.852966        -0.825254
 C         1.018061         1.960508        -0.053239
 C         0.052708         1.524416        -1.184185
 C         0.858836         1.782223        -2.478714
 O         1.090617         3.109177        -2.947948
 C         1.692743         0.776780         0.447906
 O         1.468416         0.230610         1.491588
 H         3.989703         2.978876        -3.061767
 H         4.034679         1.173690        -2.563187
 H         3.233354         1.944491        -3.979997
 H         3.025800         2.661712        -0.357147
 H         1.855486         3.899658        -0.899005
 H         0.650621         2.302058         0.893113
 H        -0.254251         0.425660        -1.213658
 H        -0.839177         2.171543        -1.043049
 H         0.595658         1.053961        -3.222948
 H         2.609234         0.523682        -0.176159
