19
Iteration:  2717
 C         3.376680         2.874938        -3.056801
 C         2.064181         2.525186        -2.272559
 C         2.136892         2.557531        -0.777820
 C         0.972956         1.778270        -0.281489
 C         0.494259         0.961895        -1.482838
 C         1.124254         1.480343        -2.732257
 O         0.761642         2.964392        -2.823270
 C         1.562399         0.740019         0.673657
 O         1.351598         0.723989         1.880954
 H         3.832025         3.829989        -2.804093
 H         4.048869         2.034250        -2.838309
 H         3.143726         2.958031        -4.176659
 H         3.029163         2.031009        -0.384023
 H         2.117190         3.645640        -0.404509
 H         0.174639         2.328894         0.293701
 H         0.822752        -0.111478        -1.290917
 H        -0.587250         0.872830        -1.623638
 H         1.062014         0.976716        -3.772119
 H         2.331783         0.021569         0.273891
