19
Iteration:  3843
 C         3.223610         3.203714        -3.060671
 C         2.113444         2.635078        -2.189302
 C         2.077579         2.668035        -0.744591
 C         0.823940         1.655212        -0.455634
 C         1.059156         0.548810        -1.479989
 C         1.320402         1.416285        -2.754120
 O         0.687875         2.791396        -2.631758
 C         0.877823         1.209737         0.947516
 O         1.673627         0.433115         1.479911
 H         2.949946         4.254978        -3.398388
 H         4.138850         3.184927        -2.400204
 H         3.297840         2.746289        -4.021522
 H         2.900722         2.271059        -0.088020
 H         2.032569         3.762612        -0.342005
 H        -0.223021         2.213838        -0.502216
 H         1.986422         0.004897        -1.373377
 H         0.197257        -0.052971        -1.430963
 H         1.508616         1.021396        -3.769636
 H         0.053179         1.554448         1.622045
