19
Iteration:  3333charge 0 multiplicity 1
 C         3.067618         3.241121        -3.361372
 C         2.123961         2.526181        -2.477323
 C         2.490045         2.359501        -0.945911
 C         1.324577         1.653886        -0.295581
 C         0.954428         0.670650        -1.442606
 C         1.076700         1.521956        -2.634243
 O         0.718922         2.942046        -2.599437
 C         1.569594         0.920262         1.043420
 O         0.662736         0.720394         1.821635
 H         3.256491         4.281310        -3.009347
 H         4.004725         2.777389        -3.122368
 H         2.578984         3.277704        -4.412192
 H         3.299567         1.637745        -1.020372
 H         2.698345         3.313522        -0.526449
 H         0.371988         2.274681        -0.006652
 H         1.509749        -0.287444        -1.448270
 H        -0.118246         0.350698        -1.229433
 H         0.906696         1.114830        -3.682474
 H         2.649108         0.552195         1.306204
