19
Iteration:  3069
 C         3.382552         2.744474        -2.880046
 C         2.079398         2.437925        -2.249964
 C         1.851373         2.855379        -0.769342
 C         0.895311         1.720547        -0.274336
 C         0.305285         0.969937        -1.440154
 C         1.090916         1.472875        -2.689632
 O         0.905390         2.967078        -3.007174
 C         1.776381         0.868763         0.654158
 O         1.495019         0.509432         1.824090
 H         3.790189         3.782276        -2.963995
 H         4.271853         2.171815        -2.556608
 H         3.270777         2.548703        -3.868227
 H         2.953391         2.707823        -0.366532
 H         1.478298         3.860000        -0.763939
 H         0.148534         2.143404         0.518884
 H         0.388880        -0.088033        -1.300191
 H        -0.729506         1.333253        -1.620942
 H         1.247791         0.965331        -3.558050
 H         2.771835         0.718074         0.228784
