19
Iteration:  1524charge 0 multiplicity 1
 C         3.458282         2.580988        -2.930853
 C         2.110023         2.506747        -2.194902
 C         2.124841         2.762290        -0.803414
 C         0.882034         1.835188        -0.234586
 C         0.143336         1.296069        -1.396069
 C         1.009876         1.586235        -2.567695
 O         0.913284         2.992279        -2.942881
 C         1.432628         0.588684         0.573258
 O         1.745602         0.523741         1.698299
 H         4.228885         3.222407        -2.662270
 H         3.771326         1.500561        -2.892160
 H         3.179558         2.596355        -4.032603
 H         3.013308         2.380344        -0.287500
 H         2.076086         3.921216        -0.655973
 H         0.186117         2.272248         0.528419
 H        -0.000274         0.215658        -1.337926
 H        -0.842047         1.723379        -1.505231
 H         1.027029         1.028453        -3.490037
 H         1.473003        -0.373506        -0.072043
