19
Iteration:  3298
 C         2.861670         3.306814        -3.566553
 C         2.189909         2.560503        -2.319328
 C         2.704321         2.385350        -0.863733
 C         1.419325         1.684506        -0.263864
 C         0.912967         0.668246        -1.441777
 C         1.185117         1.520270        -2.633043
 O         0.732678         2.800450        -2.462736
 C         1.486730         0.928960         0.986930
 O         0.540688         0.706672         1.730277
 H         3.244104         4.314801        -3.154150
 H         3.694508         2.599767        -3.943418
 H         2.319199         3.457762        -4.500756
 H         3.556357         1.751698        -0.748645
 H         3.007822         3.250752        -0.411505
 H         0.705880         2.493978        -0.294636
 H         1.190172        -0.429182        -1.328596
 H        -0.170475         0.961185        -1.365545
 H         1.035248         1.019496        -3.606593
 H         2.469030         0.418196         1.336792
