19
Iteration:   199charge 0 multiplicity 1
 C         3.436963         2.244310        -3.150880
 C         2.116934         2.263421        -2.292316
 C         2.447098         2.039076        -0.848713
 C         1.060648         1.979126        -0.244985
 C         0.071303         1.369970        -1.363620
 C         0.744519         1.941999        -2.623649
 O         1.073376         3.330518        -2.453460
 C         1.007850         1.157646         1.083464
 O         1.819891         0.284234         1.094744
 H         4.182277         2.911730        -2.772023
 H         3.864547         1.211573        -3.182458
 H         3.199718         2.625294        -4.239700
 H         2.997569         1.163742        -0.708385
 H         3.047930         2.896919        -0.549100
 H         0.725134         3.015356        -0.090314
 H        -0.041154         0.344869        -1.382030
 H        -0.904333         1.806722        -1.200449
 H         0.471577         1.596332        -3.601953
 H         0.134671         1.261747         1.777573
