19
Iteration:  4191
 C         3.173604         3.459067        -2.951382
 C         2.104038         2.587004        -2.252433
 C         2.081709         2.501053        -0.759220
 C         0.849505         1.621892        -0.403485
 C         0.900862         0.573222        -1.501229
 C         1.362409         1.399501        -2.710277
 O         0.752212         2.710501        -2.879379
 C         1.024608         1.313187         1.053836
 O         1.572497         0.375577         1.536794
 H         2.837388         4.489808        -2.729525
 H         4.179499         3.214840        -2.529560
 H         3.123370         3.307315        -3.931262
 H         2.984950         1.900239        -0.288546
 H         2.174784         3.473873        -0.278296
 H         0.036919         2.314412        -0.454854
 H         1.773511        -0.235424        -1.498689
 H        -0.131852         0.307722        -1.683261
 H         1.646799         0.757435        -3.570138
 H         0.791731         2.221885         1.754139
