19
Iteration:   480charge 0 multiplicity 1
 C         3.120593         2.352252        -3.682847
 C         2.181017         2.360836        -2.428482
 C         2.694483         2.219722        -0.973877
 C         1.409388         1.959189        -0.091666
 C         0.350641         1.468487        -1.111973
 C         0.746189         1.943914        -2.483668
 O         1.076043         3.325313        -2.605146
 C         1.548946         0.685889         0.857592
 O         0.746142         0.344932         1.716607
 H         3.631226         3.327402        -3.794900
 H         3.989921         1.687378        -3.537570
 H         2.642625         2.307568        -4.745577
 H         3.336216         1.396269        -0.886439
 H         3.549863         2.839802        -0.683897
 H         1.075825         2.737652         0.583060
 H         0.415121         0.449272        -1.051692
 H        -0.672838         1.700605        -0.946087
 H         0.385051         1.493596        -3.317948
 H         2.433135         0.076547         0.619790
