19
Iteration:  2233
 C         3.472738         2.574986        -2.941292
 C         2.101234         2.472370        -2.228675
 C         1.928043         2.860954        -0.807711
 C         0.980905         1.868519        -0.211483
 C         0.144028         1.220519        -1.360785
 C         0.976340         1.544715        -2.605337
 O         0.955777         2.921769        -2.873031
 C         1.703552         0.718675         0.485747
 O         1.534165         0.438141         1.669005
 H         3.844524         3.595947        -3.169108
 H         4.234061         2.110039        -2.283919
 H         3.564135         2.051934        -3.867940
 H         2.943616         2.890079        -0.347882
 H         1.554824         3.954227        -0.657798
 H         0.314921         2.342865         0.614004
 H         0.009697         0.157022        -1.134133
 H        -0.922048         1.539850        -1.285612
 H         0.966231         0.859678        -3.491985
 H         2.547134         0.217786        -0.053077
