19
Iteration:  2020charge 0 multiplicity 1
 C         3.349995         2.874205        -3.158045
 C         2.115375         2.593957        -2.413176
 C         2.262637         2.424812        -0.828857
 C         1.041291         1.782780        -0.136969
 C         0.392741         1.082615        -1.436043
 C         1.049748         1.501903        -2.721951
 O         0.817035         3.062188        -2.868293
 C         1.517084         0.693110         0.771143
 O         1.295811         0.593402         1.918715
 H         3.619030         3.947016        -2.987250
 H         4.168763         2.188774        -2.860035
 H         3.169554         2.846817        -4.191798
 H         3.239483         1.925014        -0.532414
 H         2.422421         3.398319        -0.374775
 H         0.567170         2.516467         0.464262
 H         0.537792        -0.065856        -1.279093
 H        -0.759122         1.075077        -1.372219
 H         0.908637         0.828408        -3.686526
 H         2.140215         0.028436         0.134433
