19
Iteration:   964
 C         3.421704         2.062236        -2.953468
 C         2.111867         2.379859        -2.271702
 C         2.063685         2.839358        -0.837932
 C         1.014195         1.956931        -0.047179
 C         0.082569         1.542396        -1.199537
 C         0.848312         1.760474        -2.464707
 O         1.078925         3.125136        -2.972547
 C         1.684308         0.771083         0.446582
 O         1.480557         0.221720         1.508747
 H         3.980022         2.998905        -2.948998
 H         3.989744         1.247617        -2.571180
 H         3.225640         1.917986        -3.972492
 H         2.953820         2.542670        -0.370527
 H         1.849611         3.935119        -0.805993
 H         0.691567         2.356162         0.904167
 H        -0.293887         0.540134        -1.257638
 H        -0.782098         2.164388        -1.116812
 H         0.643275         1.010215        -3.269318
 H         2.651266         0.598599        -0.215621
