19
Iteration:  1735charge 0 multiplicity 1
 C         3.323329         2.781778        -3.264297
 C         2.135604         2.463795        -2.401246
 C         2.263683         2.662792        -0.850532
 C         1.051567         1.942005        -0.067195
 C         0.329013         1.180876        -1.239438
 C         1.073283         1.524348        -2.531505
 O         0.909109         3.018671        -2.921836
 C         1.573536         0.754609         0.694806
 O         1.193143         0.327759         1.775185
 H         3.868839         3.547179        -2.779364
 H         3.995568         1.917769        -3.358114
 H         2.996509         2.872661        -4.254762
 H         3.268804         2.177668        -0.563643
 H         2.418651         3.655695        -0.430605
 H         0.456031         2.591781         0.582568
 H         0.495801         0.143184        -1.158541
 H        -0.733967         1.388712        -1.469865
 H         0.792996         0.844391        -3.427707
 H         2.370932         0.204931         0.151152
