19
Iteration:  2365charge 0 multiplicity 1
 C         3.378744         2.715146        -3.171744
 C         2.151157         2.583540        -2.315611
 C         2.123950         2.702034        -0.739687
 C         0.904839         1.806721        -0.167997
 C         0.168257         1.186493        -1.416299
 C         1.060798         1.547173        -2.584466
 O         0.929760         2.955157        -2.984289
 C         1.646667         0.768671         0.706327
 O         1.420754         0.336192         1.836742
 H         3.608582         3.783632        -3.234414
 H         4.215189         2.246328        -2.692006
 H         3.314175         2.355505        -4.133593
 H         3.151255         2.318344        -0.464626
 H         1.899486         3.796089        -0.381863
 H         0.254429         2.516035         0.440308
 H         0.213967         0.088599        -1.414510
 H        -0.810871         1.710836        -1.351159
 H         1.225555         0.755978        -3.393103
 H         2.678379         0.652019         0.288629
