19
Iteration:  3080
 C         3.430502         2.759034        -3.039725
 C         2.113354         2.455879        -2.270627
 C         1.838529         2.745313        -0.785522
 C         0.855764         1.758881        -0.216279
 C         0.329782         1.003116        -1.505806
 C         1.062927         1.506145        -2.678701
 O         0.944720         2.937163        -2.938346
 C         1.745837         0.931464         0.744227
 O         1.506228         0.475982         1.818218
 H         3.459338         3.845075        -2.773839
 H         4.298459         2.250544        -2.594655
 H         3.380673         2.602218        -4.038031
 H         2.760762         2.820312        -0.052484
 H         1.460908         3.760802        -0.732406
 H        -0.045546         2.202328         0.370536
 H         0.376082        -0.076244        -1.467153
 H        -0.755217         1.097771        -1.612739
 H         1.161087         0.834372        -3.452873
 H         2.747134         0.739637         0.332281
