19
Iteration:   559charge 0 multiplicity 1
 C         3.129121         2.690540        -3.574215
 C         2.125436         2.386693        -2.477275
 C         2.718300         1.814181        -1.187507
 C         1.419499         1.692334        -0.272313
 C         0.393462         1.079415        -1.342772
 C         0.743855         1.888331        -2.545498
 O         1.133095         3.332831        -2.276514
 C         1.519166         0.880526         0.932857
 O         0.720432         0.799795         1.847935
 H         3.880225         3.210166        -2.960102
 H         3.611672         1.774352        -4.130755
 H         2.717298         3.315456        -4.368083
 H         2.889610         0.755699        -1.226492
 H         3.519627         2.566993        -0.869330
 H         0.921825         2.645931         0.036780
 H         0.747207         0.104500        -1.628032
 H        -0.596067         0.839908        -0.964351
 H         0.093962         1.829425        -3.399190
 H         2.532076         0.286475         1.022494
