19
Iteration:  1542
 C         3.426861         2.531008        -3.031600
 C         2.097518         2.522151        -2.309139
 C         2.040669         2.759321        -0.659531
 C         0.945475         1.865326        -0.071420
 C         0.089521         1.345440        -1.432472
 C         1.024409         1.580477        -2.640344
 O         0.958039         2.972054        -3.036022
 C         1.479525         0.589447         0.618273
 O         1.731713         0.446140         1.749784
 H         3.862582         3.476248        -2.449202
 H         3.930394         1.569620        -3.100566
 H         3.505928         2.932141        -4.020925
 H         3.041271         2.530812        -0.251054
 H         1.804767         3.765910        -0.279410
 H         0.400336         2.622368         0.491467
 H        -0.190839         0.279197        -1.385028
 H        -0.879518         1.851189        -1.554404
 H         1.269684         0.793563        -3.417841
 H         1.558172        -0.221617        -0.113103
