19
Iteration:   782
 C         3.394950         2.213235        -3.177453
 C         2.157749         2.392374        -2.284486
 C         2.274360         2.569699        -0.624530
 C         0.919318         1.774846        -0.151915
 C         0.022895         1.494691        -1.391284
 C         0.844316         1.825617        -2.666208
 O         1.055831         3.235244        -2.886985
 C         1.424290         0.565211         0.574582
 O         1.696880         0.544637         1.779946
 H         4.171929         2.940656        -3.002892
 H         3.706872         1.182627        -3.089537
 H         3.104925         2.522509        -4.142901
 H         3.327838         2.299016        -0.285683
 H         2.096425         3.579808        -0.357648
 H         0.485903         2.482518         0.502610
 H        -0.074376         0.399552        -1.477274
 H        -0.948397         1.990931        -1.242326
 H         0.724066         1.117231        -3.521408
 H         1.495885        -0.396642         0.016856
