19
Iteration:  2332charge 0 multiplicity 1
 C         3.353864         2.635305        -2.987213
 C         2.101946         2.425823        -2.286682
 C         2.071968         2.814578        -0.816622
 C         1.038543         1.845067        -0.185953
 C         0.241117         1.156214        -1.346821
 C         1.041455         1.557727        -2.573782
 O         0.913539         2.960302        -2.864535
 C         1.616968         0.751999         0.498127
 O         1.439627         0.434456         1.704306
 H         3.725412         3.609260        -2.695054
 H         4.212950         2.083364        -2.648116
 H         3.269160         2.581395        -4.011384
 H         3.055703         2.874920        -0.254361
 H         1.626103         3.907651        -0.771611
 H         0.370135         2.520505         0.440656
 H         0.178275         0.050106        -1.271023
 H        -0.859791         1.368471        -1.448392
 H         1.259309         0.748613        -3.344730
 H         2.496045         0.304079        -0.018180
