19
Iteration:  1629charge 0 multiplicity 1
 C         3.394695         2.375924        -2.975133
 C         2.096545         2.543773        -2.254240
 C         2.150201         2.916014        -0.751014
 C         0.894131         1.951101        -0.154893
 C         0.237134         1.161667        -1.327354
 C         0.925133         1.642484        -2.578165
 O         0.938402         3.053105        -2.988675
 C         1.649479         0.784980         0.557627
 O         1.529276         0.260185         1.686364
 H         3.799336         3.351774        -3.521777
 H         4.073731         1.913224        -2.243926
 H         3.273785         1.753309        -3.847851
 H         3.062151         2.616323        -0.233361
 H         1.885220         3.876806        -0.410677
 H         0.178408         2.589637         0.337814
 H         0.230056         0.001915        -1.315188
 H        -0.858600         1.437254        -1.375077
 H         0.863033         1.130482        -3.562164
 H         2.421070         0.415941        -0.165849
