19
Iteration:  3834
 C         3.162795         3.186264        -3.044172
 C         2.090282         2.605332        -2.236951
 C         2.010947         2.635561        -0.694203
 C         0.887412         1.714521        -0.450355
 C         1.046435         0.580952        -1.575610
 C         1.294767         1.454630        -2.671178
 O         0.738016         2.753451        -2.637267
 C         0.877693         1.217431         0.986789
 O         1.702779         0.443195         1.464361
 H         3.072384         4.317915        -3.117544
 H         4.102782         3.265299        -2.422076
 H         3.486445         2.512873        -3.947970
 H         2.924611         2.245054        -0.272211
 H         1.909053         3.667363        -0.302331
 H        -0.063863         2.271941        -0.761048
 H         1.971285        -0.022971        -1.313211
 H         0.206994        -0.189227        -1.615361
 H         1.513939         1.056181        -3.712195
 H        -0.042963         1.590360         1.484905
