19
Iteration:  1655charge 0 multiplicity 1
 C         3.379561         2.428488        -3.144183
 C         2.133140         2.454344        -2.259923
 C         2.029075         2.884106        -0.778012
 C         0.953195         1.896517        -0.097039
 C         0.237690         1.265674        -1.319318
 C         0.974846         1.662196        -2.574253
 O         0.963806         3.074926        -2.958152
 C         1.766880         0.697526         0.660158
 O         1.397972         0.294239         1.681498
 H         3.615318         3.334481        -3.530701
 H         4.101286         1.997882        -2.459081
 H         3.336690         1.796023        -4.071064
 H         2.920736         2.895079        -0.177548
 H         1.525725         3.878044        -0.583882
 H         0.294391         2.492353         0.595412
 H         0.348322         0.234930        -1.314030
 H        -0.796260         1.414185        -1.392915
 H         1.257749         0.988997        -3.355923
 H         2.491053         0.205541        -0.105294
