19
Iteration:  2720charge 0 multiplicity 1
 C         3.371130         2.873527        -3.031774
 C         2.049341         2.506751        -2.271294
 C         2.135134         2.530206        -0.806299
 C         0.983856         1.784070        -0.278809
 C         0.496856         0.970677        -1.491444
 C         1.119432         1.487192        -2.731729
 O         0.770464         2.960308        -2.826696
 C         1.526875         0.756887         0.670454
 O         1.378748         0.714336         1.881503
 H         3.809805         3.851720        -2.848312
 H         4.071115         2.046163        -2.815376
 H         3.253469         2.928047        -4.093994
 H         3.020558         2.140839        -0.304318
 H         2.078032         3.673638        -0.337407
 H         0.165098         2.344814         0.305416
 H         0.778329        -0.054579        -1.289851
 H        -0.640419         0.812444        -1.614214
 H         1.042743         1.000047        -3.753760
 H         2.409055         0.168048         0.199347
