19
Iteration:   152
 C         3.251506         2.476264        -3.405895
 C         2.216174         2.378154        -2.354934
 C         2.477661         2.070677        -0.882613
 C         1.115942         1.844238        -0.118682
 C         0.208527         1.296222        -1.284694
 C         0.884303         1.893111        -2.599121
 O         1.167475         3.338284        -2.667489
 C         1.149884         1.262529         1.245015
 O         1.376190         0.053047         1.276653
 H         3.731786         3.477465        -3.277512
 H         3.996299         1.693481        -3.349457
 H         2.756324         2.442263        -4.406824
 H         3.173304         1.227334        -0.743516
 H         2.983835         2.895286        -0.345785
 H         0.799313         2.861640         0.178147
 H         0.344058         0.142559        -1.362704
 H        -0.881665         1.527090        -1.244597
 H         0.409452         1.564262        -3.514264
 H         0.925535         1.860501         2.153564
