19
Iteration:    57
 C         3.285325         2.648038        -3.514581
 C         2.167389         2.454996        -2.441742
 C         2.579790         2.378168        -0.914550
 C         1.366095         1.903486        -0.136127
 C         0.548107         1.140038        -1.203629
 C         0.971759         1.720061        -2.567251
 O         0.926675         3.244979        -2.586792
 C         1.519398         0.843117         0.974711
 O         0.579919         0.273509         1.573420
 H         3.821336         3.449148        -3.149263
 H         3.944550         1.794292        -3.686085
 H         2.876538         2.894804        -4.581291
 H         3.446696         1.715018        -0.784152
 H         2.976684         3.337500        -0.591262
 H         0.771737         2.781140         0.109830
 H         0.689059         0.072104        -1.045155
 H        -0.473265         1.365899        -1.013044
 H         0.603625         1.385459        -3.443292
 H         2.531824         0.466420         1.072327
