19
Iteration:  2301charge 0 multiplicity 1
 C         3.505041         2.549154        -2.962295
 C         2.092492         2.520660        -2.300507
 C         1.946081         2.883174        -0.779425
 C         1.058855         1.821622        -0.095511
 C         0.260443         1.176106        -1.319063
 C         1.002845         1.607518        -2.665515
 O         0.811939         2.968546        -3.025847
 C         1.638912         0.690731         0.579531
 O         1.495756         0.417440         1.725676
 H         3.884876         3.546705        -2.750162
 H         4.169151         1.680736        -2.632313
 H         3.471014         2.585761        -4.041242
 H         2.885234         2.762790        -0.230265
 H         1.674202         3.981754        -0.492804
 H         0.360984         2.300556         0.652281
 H         0.105866         0.060590        -1.238696
 H        -0.733386         1.532454        -1.431083
 H         1.362313         0.841266        -3.441360
 H         2.412406         0.153193        -0.056045
