19
Iteration:  1862charge 0 multiplicity 1
 C         3.029660         3.134522        -3.347864
 C         2.201010         2.431024        -2.343470
 C         2.631100         2.090564        -0.917771
 C         1.354903         1.523427        -0.343842
 C         0.485168         0.906520        -1.512612
 C         1.080649         1.639654        -2.731581
 O         0.838036         3.035103        -2.410392
 C         1.419574         0.647077         0.859886
 O         0.948201         1.043194         1.847664
 H         3.273577         4.109778        -2.990247
 H         4.032299         2.710517        -3.498107
 H         2.512369         3.490882        -4.269084
 H         3.335396         1.268872        -0.898386
 H         2.928494         3.044739        -0.429752
 H         0.801849         2.445933        -0.023552
 H         0.501644        -0.231732        -1.594206
 H        -0.538000         1.056933        -1.274138
 H         0.900072         1.414189        -3.707130
 H         1.812012        -0.412990         0.784187
