19
Iteration:  3646charge 0 multiplicity 1
 C         3.363248         3.000630        -2.623271
 C         2.062869         2.540484        -2.168233
 C         1.691858         2.699423        -0.681327
 C         0.726426         1.632414        -0.314143
 C         0.383989         0.781191        -1.618967
 C         1.262675         1.414467        -2.695870
 O         0.916932         2.821025        -3.078953
 C         1.177687         0.738212         0.812613
 O         2.183955         0.932664         1.513907
 H         3.466348         4.144357        -2.600702
 H         4.214910         2.468640        -2.027210
 H         3.465305         2.602918        -3.601311
 H         2.683192         2.599993        -0.120915
 H         1.431544         3.762635        -0.458432
 H        -0.281865         1.999538         0.083816
 H         0.536158        -0.362320        -1.496355
 H        -0.663074         0.829580        -1.917765
 H         1.668558         0.853314        -3.508926
 H         0.441812        -0.020875         1.168810
