19
Iteration:   656charge 0 multiplicity 1
 C         3.195722         2.597987        -3.492298
 C         2.115852         2.476147        -2.396301
 C         2.633637         1.950245        -1.021710
 C         1.265084         1.677385        -0.314162
 C         0.443092         1.081572        -1.453065
 C         0.804122         1.913958        -2.662180
 O         1.044807         3.334404        -2.356332
 C         1.259315         0.755463         0.827152
 O         1.113656         0.831274         2.025528
 H         3.712457         3.578188        -3.445037
 H         3.954562         1.747705        -3.514954
 H         2.680326         2.473600        -4.461094
 H         2.946321         0.967010        -1.374984
 H         3.443832         2.611963        -0.595187
 H         0.857286         2.662875         0.015073
 H         0.549479        -0.068381        -1.608799
 H        -0.653145         1.195870        -1.272299
 H         0.467406         1.678359        -3.616481
 H         1.474876        -0.290016         0.380950
