19
Iteration:  1636charge 0 multiplicity 1
 C         3.394730         2.366975        -3.005738
 C         2.096017         2.599918        -2.246552
 C         2.044708         2.854659        -0.750698
 C         0.957612         1.957170        -0.125527
 C         0.274963         1.193755        -1.330068
 C         0.978908         1.649112        -2.604456
 O         0.958330         3.045082        -2.986704
 C         1.585947         0.763631         0.624333
 O         1.522922         0.264638         1.655576
 H         3.659229         3.308874        -3.536364
 H         4.245948         1.893800        -2.472638
 H         3.145064         1.689814        -3.851201
 H         3.088369         2.665344        -0.314301
 H         1.870744         3.970772        -0.642927
 H         0.198323         2.389478         0.570124
 H         0.395829         0.070684        -1.299729
 H        -0.829049         1.462377        -1.260989
 H         0.658014         1.090690        -3.534893
 H         2.452210         0.490946        -0.067578
