19
Iteration:  2706
 C         3.325005         2.874691        -3.133764
 C         2.125763         2.591191        -2.340888
 C         2.180298         2.639791        -0.757407
 C         0.972343         1.678302        -0.264222
 C         0.458284         0.870062        -1.494601
 C         1.125756         1.575310        -2.683036
 O         0.787523         2.933360        -2.803734
 C         1.615524         0.707154         0.747694
 O         1.264322         0.750510         1.889898
 H         3.819563         3.734339        -2.702839
 H         4.078361         2.071788        -3.136632
 H         3.020471         3.010304        -4.239460
 H         3.180446         2.171868        -0.647461
 H         2.341882         3.704654        -0.319155
 H         0.156890         2.285875         0.211327
 H         0.758561        -0.231978        -1.493081
 H        -0.619533         0.974793        -1.516746
 H         1.294987         0.918474        -3.635906
 H         2.067605        -0.199381         0.254932
