19
Iteration:  4563
 C         3.079359         3.528834        -3.088103
 C         2.148623         2.626192        -2.350335
 C         2.096547         2.571533        -0.726131
 C         0.954439         1.635108        -0.392304
 C         1.085610         0.566749        -1.492743
 C         1.458546         1.369439        -2.777639
 O         0.739839         2.671407        -2.693683
 C         1.013375         1.326535         1.085880
 O         1.331876         0.247529         1.576338
 H         2.874768         4.465494        -2.571298
 H         4.129111         3.208039        -3.224383
 H         2.720153         3.660998        -4.009181
 H         3.025663         2.018842        -0.467643
 H         1.976965         3.594890        -0.346825
 H         0.177833         2.419058        -0.599483
 H         1.815359        -0.123449        -1.103203
 H         0.204438        -0.013473        -1.814362
 H         1.676003         0.893612        -3.780787
 H         0.784046         2.261849         1.719841
