19
Iteration:  1309charge 0 multiplicity 1
 C         3.264610         2.942365        -3.183940
 C         2.119397         2.351798        -2.386368
 C         2.417165         1.795672        -0.986754
 C         1.085243         1.415481        -0.429931
 C         0.455778         0.791644        -1.669309
 C         0.821820         1.877642        -2.778586
 O         0.988111         3.279498        -2.216551
 C         1.295891         0.721003         0.827474
 O         1.328641         1.292389         1.891389
 H         3.886526         3.737718        -2.689014
 H         3.849978         2.084581        -3.512463
 H         2.980340         3.364516        -4.232571
 H         2.965475         0.784697        -0.986701
 H         2.911908         2.481493        -0.355527
 H         0.594449         2.292481         0.010505
 H         0.833822        -0.141641        -1.992454
 H        -0.644919         0.604237        -1.614092
 H         0.687327         1.783286        -3.839481
 H         1.917405        -0.243043         0.759661
