19
Iteration:  3068charge 0 multiplicity 1
 C         3.381517         2.745434        -2.870236
 C         2.078288         2.446886        -2.245494
 C         1.855509         2.866721        -0.775815
 C         0.900633         1.718760        -0.265710
 C         0.292384         0.965456        -1.439565
 C         1.094185         1.470912        -2.690377
 O         0.901137         2.964065        -3.013573
 C         1.779161         0.859206         0.648160
 O         1.494182         0.514998         1.819091
 H         3.790901         3.772704        -2.951695
 H         4.249290         2.141143        -2.537688
 H         3.252849         2.519963        -3.832803
 H         2.980571         2.710801        -0.360291
 H         1.486351         3.843783        -0.746956
 H         0.154424         2.132550         0.477415
 H         0.422942        -0.086717        -1.282477
 H        -0.696427         1.361917        -1.599273
 H         1.247077         0.965991        -3.587254
 H         2.779372         0.698568         0.228668
