19
Iteration:   579
 C         3.127488         2.748471        -3.545677
 C         2.190310         2.377417        -2.422951
 C         2.659915         1.721298        -1.121434
 C         1.405490         1.619643        -0.350992
 C         0.442912         1.114118        -1.390062
 C         0.818778         1.948301        -2.663038
 O         0.973334         3.311805        -2.297646
 C         1.552556         0.799453         1.010335
 O         0.752766         0.905868         1.917329
 H         4.075090         3.247268        -3.206132
 H         3.392834         1.846317        -4.288526
 H         2.515197         3.445212        -4.297527
 H         2.984652         0.667348        -1.563953
 H         3.510024         2.105570        -0.417584
 H         1.229970         2.648495         0.017835
 H         0.489605        -0.049352        -1.733692
 H        -0.593567         1.291091        -1.099542
 H         0.427377         1.839291        -3.594830
 H         2.538093         0.168856         1.134525
