19
Iteration:  1777
 C         3.288021         2.657853        -3.312132
 C         2.080436         2.565598        -2.334885
 C         2.306085         2.577463        -0.863635
 C         1.163766         1.674864        -0.225924
 C         0.500540         0.976988        -1.469991
 C         1.013695         1.626557        -2.662047
 O         0.840358         3.184195        -2.597782
 C         1.667674         0.708753         0.754642
 O         1.023660         0.591929         1.847940
 H         3.739958         3.615450        -3.148765
 H         4.075613         1.828645        -3.226711
 H         2.877562         2.596012        -4.367600
 H         3.299231         2.245546        -0.567586
 H         2.336093         3.677796        -0.632628
 H         0.362235         2.285076         0.296186
 H         0.717717        -0.072582        -1.465528
 H        -0.566939         1.133691        -1.357734
 H         0.965915         1.177789        -3.714207
 H         2.684588         0.257581         0.593633
