19
Iteration:  1967
 C         3.176468         3.004863        -3.376719
 C         2.189285         2.561788        -2.353764
 C         2.422504         2.332730        -0.863237
 C         1.120740         1.525560        -0.334595
 C         0.498837         0.851512        -1.575329
 C         0.983422         1.701121        -2.711463
 O         0.883038         3.056225        -2.483376
 C         1.519626         0.645771         0.809669
 O         1.074081         0.896638         1.961658
 H         3.849016         3.795301        -2.987279
 H         3.825856         2.136040        -3.258871
 H         3.003379         2.960189        -4.440668
 H         3.294266         1.856265        -0.588308
 H         2.484379         3.254047        -0.347647
 H         0.503714         2.265438         0.081410
 H         0.905950        -0.117616        -1.696034
 H        -0.638361         0.916590        -1.386046
 H         0.962143         1.171660        -3.756185
 H         2.126656        -0.335408         0.640700
