19
Iteration:  4648charge 0 multiplicity 1
 C         3.180264         3.257380        -2.941359
 C         2.067329         2.619122        -2.251696
 C         1.774574         2.948938        -0.705531
 C         0.844337         1.815188        -0.279857
 C         0.852676         0.722764        -1.302741
 C         1.414476         1.331491        -2.553478
 O         0.891398         2.630343        -3.032246
 C         1.311733         1.239531         1.012610
 O         1.515518         0.055889         1.232530
 H         3.130120         4.328658        -3.043400
 H         4.117239         3.205483        -2.334759
 H         3.315516         2.921652        -4.015099
 H         2.618619         3.189304        -0.089285
 H         1.212186         3.959829        -0.626651
 H        -0.173950         2.105646        -0.018443
 H         1.466970        -0.178924        -0.859313
 H        -0.214870         0.311492        -1.502770
 H         1.805903         0.543516        -3.265582
 H         1.446309         1.998729         1.817977
