19
Iteration:  2427charge 0 multiplicity 1
 C         3.323375         2.769580        -3.190071
 C         2.100281         2.498460        -2.342384
 C         2.191117         2.735127        -0.895808
 C         1.131948         1.838353        -0.145172
 C         0.488262         0.963696        -1.372370
 C         1.045212         1.537290        -2.629421
 O         0.834414         3.028191        -2.747401
 C         1.642166         0.740847         0.663309
 O         1.140011         0.504903         1.806241
 H         3.804353         3.850580        -3.034421
 H         4.227561         2.194003        -2.779671
 H         3.091074         2.433904        -4.263847
 H         3.157202         2.307037        -0.614955
 H         2.199003         3.744953        -0.611407
 H         0.250479         2.368295         0.345332
 H         0.436548        -0.136955        -1.389627
 H        -0.658656         1.197459        -1.203556
 H         0.994890         1.048849        -3.633120
 H         2.403032         0.076033         0.223495
