19
Iteration:  1565charge 0 multiplicity 1
 C         3.438000         2.575479        -2.954949
 C         2.169557         2.463263        -2.250914
 C         1.994317         2.746819        -0.782791
 C         0.899006         1.800160        -0.125730
 C         0.047540         1.412927        -1.390086
 C         0.973645         1.620298        -2.603499
 O         1.012172         2.968134        -3.059169
 C         1.635587         0.562001         0.558403
 O         1.652476         0.437962         1.811817
 H         3.979765         3.538856        -2.721238
 H         3.954674         1.633277        -3.144376
 H         3.131722         2.865409        -3.958146
 H         3.021413         2.673063        -0.438618
 H         1.693933         3.808624        -0.576701
 H         0.420085         2.390756         0.656406
 H        -0.347581         0.436835        -1.215376
 H        -0.788080         1.984696        -1.704890
 H         0.775165         0.752508        -3.264443
 H         2.220605        -0.146912        -0.051892
