19
Iteration:  4349charge 0 multiplicity 1
 C         3.181692         3.408120        -2.977008
 C         2.085940         2.698559        -2.289459
 C         1.872037         2.895820        -0.789066
 C         0.941202         1.769712        -0.271211
 C         0.807148         0.670196        -1.445071
 C         1.424623         1.389603        -2.678408
 O         0.814862         2.592190        -3.080596
 C         1.483990         1.129724         1.096447
 O         1.249385         0.065847         1.602568
 H         3.263667         4.430182        -2.606703
 H         4.184499         3.068995        -2.736381
 H         3.192298         3.485894        -4.170244
 H         2.840147         2.687612        -0.219229
 H         1.492075         4.059731        -0.659123
 H        -0.063231         2.219810        -0.145140
 H         1.269428        -0.415537        -1.185636
 H        -0.270533         0.346269        -1.520325
 H         1.908613         0.719247        -3.423459
 H         2.160969         1.905224         1.575523
