19
Iteration:  2144charge 0 multiplicity 1
 C         3.462269         2.628197        -2.981036
 C         2.120732         2.399061        -2.272580
 C         1.931233         2.890251        -0.729931
 C         1.024421         1.776609        -0.155540
 C         0.130282         1.238074        -1.400585
 C         0.956849         1.508862        -2.651666
 O         0.947603         2.941269        -2.937179
 C         1.810540         0.734216         0.555738
 O         1.464021         0.451501         1.735371
 H         3.882048         3.546822        -2.596865
 H         4.170539         1.952202        -2.589436
 H         3.433017         2.653360        -4.131334
 H         2.972878         2.699134        -0.318768
 H         1.756948         3.987955        -0.654805
 H         0.241942         2.136229         0.545215
 H        -0.203486         0.217789        -1.336468
 H        -0.844296         1.846724        -1.535830
 H         0.720494         0.998556        -3.506216
 H         2.627253         0.177517         0.007475
