19
Iteration:  4770
 C         3.442893         2.895885        -2.428699
 C         1.969189         2.590084        -2.105691
 C         1.353137         3.112822        -0.794296
 C         0.657543         1.816009        -0.203728
 C         0.542161         0.859513        -1.413192
 C         1.340720         1.308011        -2.556845
 O         0.880629         2.545016        -3.095120
 C         1.570650         1.329988         0.870208
 O         1.981191         0.209104         0.967066
 H         3.805964         3.877173        -2.714190
 H         4.146424         2.459716        -1.664773
 H         3.707350         2.217416        -3.133195
 H         2.088146         3.532359        -0.222402
 H         0.662323         3.908324        -1.121125
 H        -0.321025         1.996747         0.169434
 H         0.824867        -0.147783        -1.062390
 H        -0.489402         0.729345        -1.845044
 H         1.946293         0.864667        -3.345470
 H         1.913662         2.133172         1.568675
