19
Iteration:  4571charge 0 multiplicity 1
 C         3.067872         3.483277        -3.079286
 C         2.154472         2.593958        -2.274486
 C         2.082334         2.576913        -0.754285
 C         0.955776         1.634820        -0.388742
 C         1.103197         0.560009        -1.523991
 C         1.431852         1.389056        -2.741918
 O         0.743801         2.723911        -2.757641
 C         1.013779         1.322586         1.097985
 O         1.350307         0.251238         1.561655
 H         3.041645         4.479337        -2.726135
 H         4.092701         3.175268        -2.993724
 H         2.841877         3.617352        -4.162701
 H         3.105470         2.350349        -0.330839
 H         1.821751         3.630239        -0.284609
 H        -0.081835         2.014492        -0.471435
 H         2.046129        -0.115570        -1.308320
 H         0.136924        -0.059652        -1.625176
 H         1.470774         0.894076        -3.736409
 H         0.877774         2.267585         1.776918
