19
Iteration:  1919charge 0 multiplicity 1
 C         3.209201         3.092993        -3.304328
 C         2.100916         2.557323        -2.345967
 C         2.573254         2.053808        -1.018001
 C         1.221752         1.478490        -0.393908
 C         0.692002         0.732627        -1.637724
 C         0.846837         1.721573        -2.762157
 O         0.824889         3.097680        -2.358795
 C         1.391852         0.710575         0.936938
 O         0.955007         1.074810         1.998767
 H         3.650840         3.926824        -2.804660
 H         4.030574         2.360653        -3.593264
 H         2.748549         3.273879        -4.247098
 H         3.170300         1.193519        -1.334285
 H         3.327543         2.626069        -0.448837
 H         0.638055         2.419023        -0.159483
 H         1.578310         0.031896        -1.862039
 H        -0.256659         0.262894        -1.508140
 H         0.495715         1.672852        -3.782976
 H         2.258172        -0.063006         0.861795
