19
Iteration:  3973
 C         3.310408         3.156496        -2.970513
 C         1.965340         2.717398        -2.254462
 C         1.710178         3.067719        -0.806904
 C         0.864533         1.732385        -0.282787
 C         0.925886         0.670211        -1.363391
 C         1.449150         1.410221        -2.559310
 O         0.784474         2.610492        -3.005168
 C         1.335709         1.279751         1.113534
 O         1.500112         0.045801         1.277821
 H         3.512909         4.233243        -2.805592
 H         4.131921         2.647962        -2.337284
 H         3.384831         2.769050        -3.926309
 H         2.598072         3.204682        -0.086785
 H         0.902963         3.905775        -0.717258
 H        -0.130429         2.201589        -0.155097
 H         1.424179        -0.217103        -1.029306
 H        -0.042646         0.280507        -1.499434
 H         1.866578         0.670658        -3.271619
 H         1.637408         1.975440         1.955434
