19
Iteration:  1041charge 0 multiplicity 1
 C         3.359521         2.427930        -3.124082
 C         2.104711         2.417713        -2.287694
 C         2.334130         2.823893        -0.877675
 C         1.107622         1.992420        -0.045938
 C         0.123095         1.641683        -1.154560
 C         0.833525         1.645138        -2.505476
 O         1.019027         2.941725        -3.047196
 C         1.702964         0.633972         0.613593
 O         1.228630         0.160262         1.624842
 H         3.850443         3.404384        -3.185267
 H         4.142316         1.753034        -2.601937
 H         3.275436         2.070272        -4.167533
 H         3.282788         2.345263        -0.445696
 H         2.451227         3.914637        -0.606278
 H         0.632322         2.580601         0.771961
 H        -0.229491         0.668135        -0.918860
 H        -0.669424         2.348583        -1.198546
 H         0.700973         0.837496        -3.284402
 H         2.383370         0.054021        -0.003617
