19
Iteration:  4163charge 0 multiplicity 1
 C         3.262775         3.260306        -2.943221
 C         2.024324         2.644500        -2.257025
 C         1.993063         2.661294        -0.756771
 C         0.840519         1.595042        -0.417045
 C         1.025898         0.572601        -1.515863
 C         1.385399         1.424527        -2.761941
 O         0.708354         2.770785        -2.772441
 C         1.000379         1.321969         1.042524
 O         1.608446         0.340758         1.499465
 H         3.338419         4.326919        -2.677351
 H         4.154527         2.713044        -2.527940
 H         3.030795         2.970833        -4.066876
 H         2.923583         2.249918        -0.200902
 H         1.704290         3.722949        -0.435786
 H        -0.074709         2.253862        -0.345071
 H         1.934867        -0.020037        -1.438232
 H         0.195166        -0.142672        -1.620774
 H         1.344596         0.894959        -3.705207
 H         0.566652         2.076501         1.717883
