19
Iteration:  2521charge 0 multiplicity 1
 C         3.139093         3.066605        -3.414663
 C         2.102679         2.532817        -2.398368
 C         2.537215         2.340676        -0.911306
 C         1.357822         1.702930        -0.271219
 C         0.736174         0.799185        -1.409276
 C         1.022452         1.577685        -2.642794
 O         0.741454         2.992114        -2.440768
 C         1.594006         0.796365         0.871636
 O         0.706757         0.775151         1.734113
 H         3.700195         3.853662        -3.075151
 H         3.832374         2.277204        -3.564952
 H         2.594633         3.253720        -4.353189
 H         3.439826         1.676674        -0.860464
 H         2.834572         3.423334        -0.551943
 H         0.678203         2.432107         0.106844
 H         1.303659        -0.177151        -1.455238
 H        -0.258569         0.561611        -1.181417
 H         0.855079         1.065669        -3.582364
 H         2.520923         0.182904         0.980416
