19
Iteration:  1816charge 0 multiplicity 1
 C         3.244274         2.863636        -3.302970
 C         2.087646         2.485879        -2.465993
 C         2.480670         2.262218        -0.964310
 C         1.131010         1.668905        -0.276479
 C         0.659142         0.917355        -1.477856
 C         0.889894         1.737127        -2.762692
 O         0.830834         3.212266        -2.585018
 C         1.517845         0.727535         0.892647
 O         0.996223         0.697834         2.046509
 H         3.439803         3.956570        -3.250156
 H         4.128989         2.343161        -3.081530
 H         2.976750         2.855499        -4.355881
 H         3.208169         1.423794        -1.024144
 H         2.772245         3.096170        -0.321811
 H         0.499180         2.486954         0.031305
 H         1.227003        -0.041430        -1.617464
 H        -0.359274         0.545165        -1.520429
 H         0.837115         1.292059        -3.692603
 H         2.464727         0.154941         0.790909
