19
Iteration:  3013charge 0 multiplicity 1
 C         3.438475         2.766333        -2.863114
 C         2.036282         2.521493        -2.253343
 C         1.783688         2.965812        -0.809991
 C         0.908304         1.831265        -0.173785
 C         0.223338         1.087914        -1.468784
 C         1.124104         1.464629        -2.606412
 O         0.963830         2.798953        -3.076117
 C         1.629912         0.744042         0.600521
 O         1.696350         0.455635         1.801126
 H         3.711128         3.826709        -2.612950
 H         4.095165         2.000634        -2.383482
 H         3.430141         2.485884        -3.853154
 H         2.722607         3.307508        -0.153992
 H         1.232361         3.870574        -0.753747
 H         0.135879         2.347195         0.519925
 H         0.277224         0.012724        -1.314670
 H        -0.808929         1.418545        -1.671788
 H         1.408458         0.749766        -3.371760
 H         2.090039        -0.067151        -0.082994
