19
Iteration:  4813
 C         3.429432         2.997695        -2.458157
 C         2.034424         2.545947        -2.077941
 C         1.351776         3.058636        -0.834166
 C         0.569154         1.864618        -0.144926
 C         0.308329         0.902545        -1.348104
 C         1.324666         1.245456        -2.467636
 O         1.084360         2.479651        -3.190627
 C         1.490285         1.264823         0.956841
 O         2.161675         0.264398         0.789553
 H         3.456484         4.106262        -2.318942
 H         4.240006         2.541558        -1.726375
 H         3.632787         2.668255        -3.444818
 H         2.043658         3.493367        -0.141557
 H         0.689298         3.907828        -0.974730
 H        -0.335066         2.239193         0.308155
 H         0.383973        -0.101248        -1.114708
 H        -0.754573         1.081477        -1.598331
 H         1.758180         0.329767        -2.985120
 H         1.458888         1.852919         1.883510
