19
Iteration:  3941charge 0 multiplicity 1
 C         3.193046         3.336185        -2.910663
 C         2.115436         2.593329        -2.243612
 C         1.871824         2.846553        -0.749061
 C         0.756592         1.768517        -0.329759
 C         0.824672         0.720443        -1.371791
 C         1.429677         1.283709        -2.543424
 O         0.819224         2.544389        -2.954597
 C         1.301980         1.311202         0.994151
 O         1.522433         0.173482         1.270804
 H         3.134605         4.332046        -2.486152
 H         4.062951         2.710113        -2.740891
 H         2.980934         3.590640        -3.843064
 H         2.857832         2.680616        -0.092940
 H         1.464927         3.965292        -0.704932
 H        -0.198542         2.405552        -0.267719
 H         1.495911        -0.015470        -0.980827
 H        -0.119056         0.314362        -1.548584
 H         1.965054         0.717579        -3.359003
 H         1.545281         2.069892         1.820910
