19
Iteration:  3082charge 0 multiplicity 1
 C         3.434473         2.769893        -3.047724
 C         2.127723         2.465859        -2.272692
 C         1.858070         2.739372        -0.788361
 C         0.851058         1.756876        -0.195412
 C         0.317257         0.999595        -1.512483
 C         1.064129         1.511829        -2.678958
 O         0.946202         2.925410        -2.931547
 C         1.744310         0.935139         0.743924
 O         1.502702         0.471360         1.822766
 H         3.440494         3.834479        -2.768377
 H         4.269656         2.242776        -2.587818
 H         3.363201         2.569289        -4.150565
 H         2.674470         2.818313        -0.083125
 H         1.418811         3.799987        -0.711821
 H        -0.103425         2.234611         0.318323
 H         0.497045        -0.103455        -1.466621
 H        -0.818421         1.159746        -1.593075
 H         1.140937         0.818714        -3.505794
 H         2.751147         0.739079         0.338733
