19
Iteration:  3042
 C         3.451948         2.700592        -2.800908
 C         2.016165         2.602488        -2.304922
 C         1.829261         2.906178        -0.723686
 C         0.984002         1.750092        -0.220986
 C         0.330111         1.081407        -1.425228
 C         1.094154         1.508548        -2.590258
 O         0.785217         2.821543        -3.098739
 C         1.746030         0.721333         0.583536
 O         1.524744         0.561180         1.752290
 H         3.939704         3.637716        -2.669639
 H         4.031576         1.953662        -2.244037
 H         3.719902         2.391911        -3.961202
 H         2.857221         2.898647        -0.357020
 H         1.277307         3.900192        -0.550516
 H         0.360963         2.116647         0.530667
 H         0.706914         0.006488        -1.348489
 H        -0.658861         1.508224        -1.597822
 H         1.530665         0.767370        -3.413701
 H         2.422817         0.058492        -0.034253
