19
Iteration:  1833charge 0 multiplicity 1
 C         3.208435         3.051461        -3.374519
 C         2.162066         2.524521        -2.400629
 C         2.507570         2.167664        -0.972127
 C         1.237824         1.666609        -0.285086
 C         0.529353         0.811860        -1.524530
 C         0.984626         1.696873        -2.726818
 O         0.836728         3.104785        -2.509981
 C         1.506895         0.757781         0.882340
 O         0.953207         0.797948         2.036001
 H         3.506460         4.141294        -3.230584
 H         4.188976         2.439811        -3.231164
 H         2.892449         2.981450        -4.438795
 H         3.159329         1.273561        -0.924886
 H         3.048128         3.054190        -0.578014
 H         0.542966         2.518365        -0.047517
 H         0.955972        -0.220692        -1.624063
 H        -0.580223         0.647677        -1.276415
 H         0.554091         1.460726        -3.841448
 H         2.010923        -0.234753         0.647719
