19
Iteration:  3964
 C         3.275307         3.186690        -2.892350
 C         2.033988         2.695879        -2.252636
 C         1.709565         3.010337        -0.735071
 C         0.855024         1.832312        -0.278136
 C         0.894694         0.653591        -1.378537
 C         1.456608         1.305753        -2.552299
 O         0.788513         2.585252        -2.991646
 C         1.352310         1.265335         1.069709
 O         1.494476         0.107411         1.248221
 H         3.360137         4.259703        -2.913114
 H         4.061969         2.556264        -2.552104
 H         3.104640         3.031017        -3.890479
 H         2.704560         3.107555        -0.112829
 H         1.205160         4.066724        -0.762581
 H        -0.258514         2.082161        -0.349768
 H         1.604682        -0.109312        -1.138878
 H        -0.084936         0.266925        -1.522782
 H         1.756563         0.839775        -3.526223
 H         1.662740         1.998023         1.905371
