19
Iteration:  3416charge 0 multiplicity 1
 C         3.252860         3.078832        -3.162525
 C         2.092342         2.526463        -2.313685
 C         2.098629         2.665520        -0.764379
 C         0.975292         1.666006        -0.254866
 C         0.618362         0.825549        -1.529727
 C         1.247538         1.480519        -2.745757
 O         0.798340         2.860375        -2.931519
 C         1.518633         0.699970         0.819271
 O         1.271473         0.743282         2.031753
 H         3.369931         4.162518        -2.951924
 H         4.317565         2.631681        -3.205220
 H         2.936726         3.042126        -4.181181
 H         3.231721         2.558975        -0.385962
 H         1.916434         3.760569        -0.333424
 H         0.159594         2.128038         0.219908
 H         1.087893        -0.145942        -1.326015
 H        -0.473600         0.815924        -1.620683
 H         1.303449         0.916789        -3.716201
 H         1.956173        -0.232456         0.355547
