19
Iteration:  2661
 C         3.228338         3.036288        -3.383669
 C         2.170808         2.514263        -2.373752
 C         2.337665         2.488165        -0.899819
 C         1.136278         1.637305        -0.217293
 C         0.628377         0.795735        -1.557324
 C         1.040279         1.634811        -2.737889
 O         0.830220         2.988839        -2.699396
 C         1.481686         0.716741         0.925395
 O         1.013261         0.748914         2.078257
 H         3.700964         3.871554        -2.834851
 H         4.052897         2.355366        -3.603046
 H         2.627418         3.358918        -4.300774
 H         3.323106         1.926845        -0.722658
 H         2.454351         3.513897        -0.541057
 H         0.400554         2.292794         0.160112
 H         1.217016        -0.178026        -1.714224
 H        -0.394740         0.626683        -1.543692
 H         1.053201         1.192264        -3.754199
 H         2.344889        -0.026047         0.774097
