19
Iteration:  3988
 C         3.358569         3.131485        -2.924289
 C         2.041737         2.750864        -2.296591
 C         1.615120         3.048282        -0.822202
 C         0.936146         1.790912        -0.199535
 C         0.868815         0.741454        -1.356647
 C         1.463817         1.430903        -2.581774
 O         0.745223         2.617395        -3.062749
 C         1.344777         1.174032         1.056930
 O         1.512617        -0.001214         1.393706
 H         3.323400         4.140867        -3.282085
 H         4.075238         2.799248        -2.282784
 H         3.404103         2.535518        -3.904139
 H         2.595487         3.344952        -0.339920
 H         1.004728         3.941030        -0.864327
 H        -0.152336         1.983831         0.107954
 H         1.603718        -0.042839        -1.132613
 H        -0.145937         0.272855        -1.544839
 H         1.925102         0.983305        -3.470935
 H         1.269188         1.947565         1.918271
