19
Iteration:  2171
 C         3.379079         2.653334        -3.050800
 C         2.159341         2.422614        -2.227652
 C         1.961064         2.805992        -0.745990
 C         0.937607         1.809415        -0.127607
 C         0.038800         1.287777        -1.327907
 C         1.094602         1.580898        -2.592851
 O         0.990531         2.932123        -3.071423
 C         1.659389         0.689917         0.607937
 O         1.571967         0.373007         1.738190
 H         3.852668         3.594930        -2.655448
 H         4.240487         2.029570        -2.508139
 H         3.184672         2.481507        -4.090715
 H         2.911561         2.790581        -0.248072
 H         1.621744         3.853131        -0.796426
 H         0.285407         2.473273         0.481823
 H        -0.262968         0.193958        -1.193801
 H        -0.774703         1.912516        -1.570767
 H         1.111113         0.831476        -3.501246
 H         2.652455         0.556621         0.017486
