19
Iteration:  2476
 C         3.239393         2.914611        -3.359178
 C         2.088873         2.601216        -2.441013
 C         2.314517         2.475241        -0.887206
 C         1.115174         1.719708        -0.231523
 C         0.574039         0.912098        -1.414858
 C         1.055677         1.559627        -2.719654
 O         0.855417         3.091729        -2.753796
 C         1.646579         0.851262         1.018908
 O         0.975488         0.493069         1.911443
 H         3.903388         3.580210        -2.909280
 H         3.875797         2.065513        -3.509960
 H         2.865942         3.250250        -4.318959
 H         3.187023         1.776652        -0.789726
 H         2.516359         3.474837        -0.318602
 H         0.442948         2.391712         0.236481
 H         0.979970        -0.150061        -1.306508
 H        -0.475476         0.793390        -1.369070
 H         0.827744         1.086761        -3.662043
 H         2.726639         0.585112         0.878495
