19
Iteration:   740charge 0 multiplicity 1
 C         3.417092         2.383320        -3.192291
 C         2.172936         2.395598        -2.329021
 C         2.385200         2.323041        -0.814272
 C         0.972834         1.877333        -0.238178
 C         0.094337         1.347546        -1.393781
 C         0.816082         1.784964        -2.653007
 O         0.960240         3.233281        -2.694804
 C         1.379855         0.708573         0.639901
 O         1.585396         0.581502         1.813919
 H         4.227574         2.999699        -2.696838
 H         3.798516         1.401038        -3.035250
 H         3.317153         2.476995        -4.412667
 H         3.175172         1.608774        -0.497408
 H         2.772802         3.224019        -0.374097
 H         0.502273         2.632618         0.365716
 H        -0.052282         0.311426        -1.315520
 H        -0.882598         1.815675        -1.474263
 H         0.524522         1.479181        -3.650989
 H         1.606224        -0.202956        -0.008206
