19
Iteration:  4447charge 0 multiplicity 1
 C         3.139900         3.254842        -3.087265
 C         2.041097         2.742348        -2.277938
 C         1.905088         3.008440        -0.748843
 C         1.113750         1.748813        -0.283826
 C         1.138438         0.708546        -1.388459
 C         1.449023         1.434508        -2.644288
 O         0.647095         2.620802        -2.914964
 C         1.449902         1.110740         1.040046
 O         1.021426         0.050898         1.476302
 H         3.196242         4.195106        -3.467757
 H         3.980503         3.044037        -2.529697
 H         3.421479         2.563730        -3.941745
 H         2.918115         2.964065        -0.286181
 H         1.294848         3.914626        -0.496221
 H         0.069811         2.057053        -0.073269
 H         2.050073         0.021706        -1.180327
 H         0.187696         0.161836        -1.443978
 H         1.875780         1.062839        -3.564437
 H         2.015053         1.751385         1.706487
