19
Iteration:  1992charge 0 multiplicity 1
 C         3.281346         2.911849        -3.240343
 C         2.208586         2.505718        -2.353912
 C         2.376924         2.458586        -0.870554
 C         1.057837         1.719365        -0.288066
 C         0.498926         0.932879        -1.488204
 C         0.992467         1.627487        -2.754579
 O         0.820526         3.101270        -2.742553
 C         1.393231         0.685989         0.780914
 O         1.231338         0.653110         2.059786
 H         3.525333         3.924730        -2.912409
 H         4.192427         2.352361        -3.461132
 H         2.718996         2.954056        -4.283090
 H         3.180301         1.662933        -0.649155
 H         2.815173         3.352793        -0.322800
 H         0.336405         2.504831         0.089514
 H         0.859519        -0.086742        -1.486675
 H        -0.542622         0.976371        -1.231519
 H         0.958294         1.009159        -3.564239
 H         1.979510        -0.201377         0.366673
