19
Iteration:  1348charge 0 multiplicity 1
 C         3.294385         2.916268        -3.255142
 C         2.168405         2.497001        -2.359511
 C         2.455590         1.984020        -0.947301
 C         1.146945         1.527528        -0.315226
 C         0.336959         0.924780        -1.550678
 C         0.984949         1.781346        -2.826006
 O         0.866012         3.187562        -2.508087
 C         1.208255         0.643688         0.881412
 O         1.420359         1.049972         1.969918
 H         3.934137         3.401105        -2.557551
 H         3.822222         1.952215        -3.524392
 H         3.027377         3.597745        -4.044871
 H         3.238227         1.254667        -0.980231
 H         2.882239         2.865497        -0.346674
 H         0.575486         2.450391        -0.103011
 H         0.450288        -0.196623        -1.766360
 H        -0.700628         1.141835        -1.307260
 H         0.694820         1.458214        -3.845456
 H         0.924740        -0.385910         0.604957
