19
Iteration:  3258
 C         3.029961         3.166858        -3.447369
 C         2.099154         2.542872        -2.455387
 C         2.636142         2.440256        -0.906486
 C         1.447790         1.676029        -0.229214
 C         1.000811         0.664228        -1.332980
 C         1.037340         1.547559        -2.629568
 O         0.697260         2.915119        -2.496823
 C         1.537597         0.930499         0.992705
 O         0.541141         0.682558         1.665975
 H         3.279094         4.111071        -2.976165
 H         3.884604         2.559220        -3.598652
 H         2.355954         3.426768        -4.346296
 H         3.576123         1.769362        -0.994275
 H         2.732326         3.526179        -0.454944
 H         0.419019         2.309901        -0.102242
 H         1.703995        -0.131755        -1.583220
 H        -0.035011         0.338991        -0.976324
 H         0.793913         1.141953        -3.673390
 H         2.554155         0.378294         1.141208
