19
Iteration:  2893charge 0 multiplicity 1
 C         3.395127         2.616388        -2.770716
 C         2.013870         2.546957        -2.224019
 C         1.681738         2.864922        -0.681967
 C         0.859451         1.717331        -0.257319
 C         0.209505         1.099150        -1.529627
 C         1.154699         1.531601        -2.651964
 O         0.989089         2.898657        -3.094239
 C         1.707654         0.698181         0.574290
 O         1.794359         0.641671         1.795680
 H         3.899155         3.613441        -2.599716
 H         4.103907         1.799588        -2.385927
 H         3.369206         2.247318        -3.836833
 H         2.533624         3.304024        -0.125328
 H         0.980260         3.624706        -0.597898
 H        -0.084610         2.101233         0.371183
 H        -0.003223         0.005333        -1.358853
 H        -0.800308         1.606973        -1.668971
 H         1.282591         0.635411        -3.428806
 H         2.511248         0.136451        -0.073546
