19
Iteration:  1104charge 0 multiplicity 1
 C         3.271049         2.320159        -3.231246
 C         2.135387         2.512493        -2.288175
 C         2.415882         2.663808        -0.784336
 C         1.058477         1.922576        -0.104481
 C         0.257743         1.372652        -1.254468
 C         0.950238         1.700504        -2.586494
 O         0.959489         3.139078        -2.857927
 C         1.620965         0.757821         0.669439
 O         1.198021         0.304505         1.659260
 H         3.816003         3.275339        -3.228060
 H         3.857996         1.534878        -2.847231
 H         2.915912         2.102814        -4.304257
 H         3.364693         2.240413        -0.616948
 H         2.298846         3.717176        -0.602345
 H         0.616713         2.557740         0.685714
 H         0.043462         0.305765        -1.264405
 H        -0.795048         1.683192        -1.233704
 H         1.074569         0.893374        -3.341325
 H         2.339787         0.208388        -0.079726
