19
Iteration:   543
 C         3.157784         2.612814        -3.610266
 C         2.166385         2.296751        -2.522888
 C         2.698794         1.947262        -1.120911
 C         1.426281         1.701467        -0.320892
 C         0.431932         1.086263        -1.266631
 C         0.673749         1.992281        -2.506826
 O         1.117341         3.322157        -2.245843
 C         1.538359         0.854887         0.927941
 O         0.691226         0.730071         1.784362
 H         3.917548         3.346572        -3.272211
 H         3.645150         1.718784        -3.895512
 H         2.599265         3.075954        -4.543064
 H         3.409502         1.070840        -1.343924
 H         3.241033         2.780727        -0.581892
 H         1.053704         2.711818        -0.167739
 H         0.585615        -0.110632        -1.320496
 H        -0.593024         1.339832        -0.907852
 H         0.120726         1.746307        -3.491540
 H         2.521971         0.213454         1.008314
