19
Iteration:  2580
 C         3.003947         3.219784        -3.465431
 C         2.202392         2.553780        -2.444386
 C         2.655400         2.267428        -1.051967
 C         1.397781         1.487330        -0.342981
 C         0.739648         0.687168        -1.430760
 C         1.037668         1.584346        -2.645682
 O         0.866147         3.075600        -2.470045
 C         1.525897         0.766910         1.096865
 O         0.565984         0.864461         1.900290
 H         2.721253         4.355301        -3.411739
 H         4.103660         2.932044        -3.554763
 H         2.653173         3.066008        -4.491677
 H         3.615907         1.534113        -1.186870
 H         3.049769         3.231602        -0.571476
 H         0.751447         2.396865        -0.023660
 H         1.304315        -0.278465        -1.603544
 H        -0.368735         0.311682        -1.210426
 H         0.696241         1.185839        -3.639728
 H         2.355776         0.045189         1.274488
