19
Iteration:  3860charge 0 multiplicity 1
 C         3.213766         3.287129        -3.102982
 C         2.106012         2.650836        -2.300980
 C         2.041778         2.622964        -0.726591
 C         0.874885         1.651502        -0.372217
 C         1.019029         0.589017        -1.474732
 C         1.336440         1.442682        -2.646524
 O         0.725251         2.767067        -2.763422
 C         0.819436         1.191535         1.066656
 O         1.678677         0.371267         1.487822
 H         3.145860         4.357243        -3.146124
 H         4.202144         3.254548        -2.624469
 H         3.292444         2.665922        -4.078869
 H         3.069699         2.421232        -0.350137
 H         1.922373         3.590838        -0.266833
 H         0.062112         2.244365        -0.632559
 H         1.850906        -0.071145        -1.124598
 H         0.136377        -0.094159        -1.713272
 H         1.409848         1.018703        -3.625661
 H         0.085391         1.764602         1.684616
