19
Iteration:  2407charge 0 multiplicity 1
 C         3.420557         2.735235        -3.158577
 C         2.138051         2.538206        -2.355325
 C         2.214397         2.745651        -0.818982
 C         1.175743         1.763897        -0.218257
 C         0.341127         1.082668        -1.274854
 C         0.969019         1.612090        -2.592422
 O         0.787114         2.972042        -2.900355
 C         1.665839         0.638657         0.660949
 O         1.183089         0.497751         1.811939
 H         3.591193         3.890786        -3.149150
 H         4.385813         2.496924        -2.675403
 H         3.437330         2.403393        -4.185321
 H         3.200178         2.734845        -0.308067
 H         1.688445         3.708141        -0.672711
 H         0.457141         2.377534         0.446703
 H         0.642665         0.021043        -1.215598
 H        -0.829505         1.146467        -1.383970
 H         0.959946         1.021070        -3.563172
 H         2.411044        -0.105079         0.241928
