19
Iteration:  4811
 C         3.438754         2.996158        -2.452556
 C         1.998809         2.550192        -2.072761
 C         1.355598         3.077275        -0.833816
 C         0.553649         1.853001        -0.146390
 C         0.309371         0.874209        -1.343791
 C         1.334109         1.232632        -2.477579
 O         1.087598         2.500331        -3.195644
 C         1.501412         1.269836         0.944073
 O         2.157691         0.258268         0.800648
 H         3.526499         4.107103        -2.340096
 H         4.183992         2.561396        -1.681923
 H         3.631799         2.649815        -3.526880
 H         2.189117         3.543178        -0.145370
 H         0.737068         3.906977        -0.968422
 H        -0.375803         2.288060         0.292901
 H         0.420796        -0.117611        -1.149859
 H        -0.727948         1.082797        -1.550408
 H         1.715075         0.291564        -2.933657
 H         1.479871         1.889932         1.898362
