19
Iteration:  3449charge 0 multiplicity 1
 C         3.396633         3.094827        -2.916276
 C         2.055236         2.556288        -2.349551
 C         2.051749         2.702159        -0.812785
 C         0.929445         1.629379        -0.314499
 C         0.438870         0.846351        -1.515532
 C         1.209304         1.420669        -2.684747
 O         0.777448         2.793912        -2.992646
 C         1.526107         0.714611         0.744345
 O         1.503587         0.824290         1.955518
 H         3.484083         4.138648        -2.568421
 H         4.360859         2.547432        -2.649082
 H         3.151442         3.248195        -3.922270
 H         2.991505         2.203776        -0.339749
 H         1.527348         3.629052        -0.358902
 H         0.103904         2.116772         0.102437
 H         0.549939        -0.248536        -1.489594
 H        -0.614742         1.009680        -1.819357
 H         1.401309         0.796041        -3.628970
 H         1.836698        -0.289021         0.486272
