19
Iteration:   610
 C         3.135160         2.803475        -3.546153
 C         2.194783         2.378873        -2.429986
 C         2.698831         1.858056        -1.151876
 C         1.378895         1.532913        -0.367570
 C         0.268893         1.097717        -1.402356
 C         0.816668         1.855181        -2.660702
 O         1.114763         3.262493        -2.261375
 C         1.496061         0.662394         0.962903
 O         0.841521         1.023914         1.944403
 H         3.947516         3.393253        -3.135937
 H         3.543912         1.989357        -4.079103
 H         2.513662         3.397556        -4.351002
 H         3.290411         0.974053        -1.352104
 H         3.080252         2.598983        -0.474914
 H         1.149647         2.526143        -0.005775
 H         0.151984        -0.049025        -1.677771
 H        -0.704943         1.381173        -1.031135
 H         0.389583         1.851090        -3.624682
 H         2.033891        -0.274180         1.011158
