19
Iteration:   598charge 0 multiplicity 1
 C         3.115631         2.816110        -3.557130
 C         2.206197         2.425071        -2.427854
 C         2.762223         1.732727        -1.144626
 C         1.381492         1.465571        -0.310167
 C         0.270982         1.117611        -1.447053
 C         0.828666         1.904020        -2.614211
 O         1.028554         3.282859        -2.282797
 C         1.497592         0.769817         0.973642
 O         0.807708         0.982432         1.952268
 H         4.057228         3.272848        -3.317905
 H         3.364927         1.912324        -3.962251
 H         2.620379         3.503579        -4.341177
 H         3.505326         0.998546        -1.393258
 H         3.463769         2.414411        -0.709191
 H         1.005947         2.439738        -0.025346
 H         0.214855        -0.010704        -1.625150
 H        -0.694407         1.571693        -1.273134
 H         0.615753         1.516138        -3.621575
 H         2.271580         0.000747         0.948574
