19
Iteration:  3485
 C         3.364902         2.937808        -2.778109
 C         2.072598         2.546485        -2.197733
 C         1.838259         2.618488        -0.696304
 C         0.769550         1.544335        -0.351307
 C         0.360543         0.792876        -1.670673
 C         1.154336         1.433223        -2.738458
 O         0.905292         2.878412        -2.943438
 C         1.608691         0.768350         0.667845
 O         1.706162         0.998195         1.845473
 H         3.435698         4.063136        -2.587382
 H         4.284767         2.427229        -2.497353
 H         3.222054         2.801422        -3.949378
 H         2.827997         2.515685        -0.049826
 H         1.657910         3.592153        -0.332633
 H        -0.077999         2.024013         0.150075
 H         0.620773        -0.281793        -1.610023
 H        -0.791589         0.908499        -1.828586
 H         1.426462         0.832064        -3.602669
 H         2.166184         0.013423         0.081232
