19
Iteration:  1331charge 0 multiplicity 1
 C         3.368434         2.922582        -3.163027
 C         2.118218         2.398759        -2.383692
 C         2.528179         1.954302        -0.975797
 C         1.084233         1.498650        -0.467080
 C         0.389715         0.902648        -1.671607
 C         0.766903         1.784220        -2.717601
 O         0.922328         3.199560        -2.393096
 C         1.247276         0.682474         0.903790
 O         1.389836         1.153173         1.957705
 H         3.971152         3.639697        -2.511125
 H         3.842775         2.060597        -3.645158
 H         2.901155         3.578063        -4.000574
 H         3.205767         1.056104        -1.154242
 H         3.022993         2.678326        -0.382469
 H         0.597081         2.421576        -0.107137
 H         0.796219        -0.083889        -1.797278
 H        -0.714197         0.732412        -1.662692
 H         0.567026         1.676541        -3.767744
 H         1.352129        -0.487932         0.748315
