19
Iteration:  1779charge 0 multiplicity 1
 C         3.294703         2.656036        -3.316637
 C         2.075257         2.567127        -2.342717
 C         2.302387         2.575978        -0.867059
 C         1.159392         1.670751        -0.229018
 C         0.510461         0.949272        -1.464891
 C         0.996299         1.641748        -2.671894
 O         0.838736         3.195168        -2.597128
 C         1.670697         0.706199         0.768624
 O         1.022021         0.599436         1.849144
 H         3.715062         3.635263        -3.113981
 H         4.081344         1.873917        -3.276337
 H         2.900145         2.545263        -4.307335
 H         3.330924         2.202553        -0.531057
 H         2.404247         3.628549        -0.563277
 H         0.394554         2.298343         0.233933
 H         0.737387        -0.060497        -1.465097
 H        -0.583850         1.140049        -1.327400
 H         1.024121         1.177043        -3.755763
 H         2.671122         0.261005         0.600524
