19
Iteration:   844charge 0 multiplicity 1
 C         3.437864         2.190611        -2.970314
 C         2.129093         2.454810        -2.237772
 C         2.217164         2.600025        -0.743756
 C         0.852591         1.904176        -0.130725
 C        -0.035664         1.607888        -1.289630
 C         0.876966         1.755378        -2.525991
 O         1.024068         3.133420        -2.963409
 C         1.517078         0.629297         0.419426
 O         1.742075         0.446201         1.619094
 H         4.019990         3.148241        -3.146274
 H         4.177050         1.453400        -2.360137
 H         3.225173         1.536849        -3.849335
 H         2.935136         1.860778        -0.393252
 H         2.497214         3.602250        -0.277497
 H         0.390790         2.499917         0.670673
 H        -0.410892         0.529215        -1.313170
 H        -0.975881         2.191308        -1.304861
 H         0.817426         0.950006        -3.320666
 H         1.711667        -0.127376        -0.429358
