19
Iteration:   130
 C         3.261656         2.488456        -3.495573
 C         2.230724         2.355605        -2.354977
 C         2.620874         2.261760        -0.865565
 C         1.193403         2.028256        -0.209696
 C         0.314939         1.311200        -1.298873
 C         0.831875         1.864607        -2.605182
 O         1.073574         3.251457        -2.552128
 C         1.223094         1.164016         1.110678
 O         1.130804        -0.059904         1.415046
 H         3.633565         3.567074        -3.485086
 H         4.107860         1.805893        -3.445437
 H         2.748504         2.355415        -4.465009
 H         3.198705         1.332580        -0.645433
 H         3.168811         3.039038        -0.299532
 H         0.765731         2.998639         0.148158
 H         0.523106         0.149552        -1.288073
 H        -0.765547         1.427784        -1.040724
 H         0.481227         1.363609        -3.559459
 H         1.322347         1.812179         1.932190
