19
Iteration:  1047
 C         3.362871         2.452042        -3.110252
 C         2.117824         2.388209        -2.306325
 C         2.330165         2.776011        -0.891353
 C         1.122428         1.992921        -0.056727
 C         0.123294         1.612616        -1.146906
 C         0.830832         1.642909        -2.508558
 O         1.028853         2.973949        -3.042372
 C         1.689662         0.643502         0.635549
 O         1.221605         0.168711         1.625373
 H         3.801618         3.482556        -3.125876
 H         4.144606         1.857149        -2.732125
 H         3.175061         2.085389        -4.190918
 H         3.237067         2.538618        -0.352817
 H         2.339382         3.870918        -0.795087
 H         0.876129         2.636374         0.802527
 H        -0.377258         0.603955        -1.020785
 H        -0.644868         2.442252        -1.216696
 H         0.680624         0.786353        -3.142831
 H         2.406015        -0.084522         0.082123
