19
Iteration:  3567
 C         3.417815         2.932082        -2.702408
 C         2.076175         2.554994        -2.235554
 C         1.660001         2.765212        -0.721382
 C         0.766170         1.581051        -0.290913
 C         0.372569         0.892813        -1.576880
 C         1.233814         1.508530        -2.771221
 O         0.869833         2.810476        -3.124045
 C         1.456599         0.680710         0.728223
 O         1.954588         0.874555         1.838328
 H         3.538482         4.036882        -2.575914
 H         4.278361         2.264350        -2.247492
 H         3.485905         2.834910        -3.895166
 H         2.548103         2.623692        -0.207608
 H         1.049984         3.772115        -0.549203
 H        -0.131960         2.109486         0.290447
 H         0.359979        -0.293305        -1.362550
 H        -0.701534         1.044350        -1.803547
 H         1.714456         0.720748        -3.495303
 H         1.463208        -0.439380         0.281145
