19
Iteration:  1679
 C         3.422190         2.611704        -3.083973
 C         2.115592         2.463742        -2.286666
 C         2.064124         2.826675        -0.855539
 C         1.154377         1.780659        -0.162124
 C         0.206527         1.309473        -1.299015
 C         0.909970         1.554847        -2.609877
 O         0.949954         2.978648        -2.877493
 C         1.748840         0.746738         0.616973
 O         1.282015         0.341077         1.708480
 H         3.724646         3.566258        -3.343837
 H         4.195783         1.975124        -2.651347
 H         3.147799         2.186777        -4.052889
 H         3.097257         2.674982        -0.469150
 H         1.670723         3.775983        -0.463016
 H         0.563231         2.401366         0.549039
 H        -0.048334         0.310962        -1.164105
 H        -0.729759         1.859271        -1.256727
 H         1.074914         0.858696        -3.433136
 H         2.704820         0.353468         0.179262
