19
Iteration:  1107charge 0 multiplicity 1
 C         3.251702         2.324686        -3.229306
 C         2.131889         2.514056        -2.328782
 C         2.391357         2.629402        -0.759170
 C         1.044252         1.940862        -0.095057
 C         0.291168         1.356298        -1.253294
 C         0.946174         1.724815        -2.596140
 O         0.955268         3.143331        -2.857122
 C         1.621962         0.764614         0.646122
 O         1.200522         0.303249         1.675490
 H         3.881191         3.244740        -3.257014
 H         3.903408         1.424783        -2.774687
 H         2.885645         2.114554        -4.206484
 H         3.417042         2.179111        -0.551130
 H         2.428487         3.788143        -0.613369
 H         0.505653         2.586457         0.630200
 H         0.223925         0.257592        -1.297610
 H        -0.703713         1.730564        -1.226672
 H         1.034154         0.896737        -3.351145
 H         2.356651         0.192589        -0.027390
