19
Iteration:   787charge 0 multiplicity 1
 C         3.431065         2.199414        -3.168949
 C         2.174533         2.406917        -2.312362
 C         2.250324         2.558570        -0.643369
 C         0.945873         1.762162        -0.150574
 C        -0.004782         1.518334        -1.395374
 C         0.792900         1.789245        -2.653807
 O         1.068270         3.262202        -2.875486
 C         1.419074         0.552028         0.588428
 O         1.709084         0.539956         1.784030
 H         4.203552         2.963218        -2.848783
 H         3.953102         1.197599        -3.170194
 H         2.976767         2.420543        -4.291613
 H         3.207408         2.503299        -0.122690
 H         2.040025         3.678192        -0.525677
 H         0.507349         2.495693         0.603399
 H        -0.204739         0.438894        -1.538751
 H        -1.002036         1.946385        -1.263724
 H         0.789143         1.117884        -3.506015
 H         1.573576        -0.413203        -0.008172
