19
Iteration:  4807
 C         3.450970         2.986779        -2.442432
 C         1.942364         2.551825        -2.077304
 C         1.381748         3.108359        -0.809520
 C         0.537324         1.835367        -0.152131
 C         0.314805         0.844010        -1.339242
 C         1.343507         1.220796        -2.479069
 O         1.090666         2.531670        -3.204871
 C         1.511130         1.284603         0.918212
 O         2.150426         0.248279         0.823110
 H         3.640716         4.063285        -2.419316
 H         4.041853         2.600426        -1.683269
 H         3.638614         2.666435        -3.507851
 H         2.309841         3.517987        -0.235578
 H         0.711127         4.011569        -1.019593
 H        -0.390206         2.313083         0.262565
 H         0.505541        -0.329933        -1.125178
 H        -0.747013         1.053559        -1.569924
 H         1.696002         0.307996        -2.910400
 H         1.558032         1.916864         1.877205
