19
Iteration:  1989charge 0 multiplicity 1
 C         3.271231         2.900354        -3.256342
 C         2.179207         2.503308        -2.368601
 C         2.388675         2.425294        -0.858552
 C         1.088968         1.710010        -0.275138
 C         0.503641         0.912723        -1.511068
 C         1.034783         1.634986        -2.771626
 O         0.821377         3.116950        -2.693038
 C         1.394908         0.683492         0.784011
 O         1.209734         0.687250         2.055545
 H         3.510556         3.926926        -2.904332
 H         4.169131         2.422297        -3.562677
 H         2.686445         2.927423        -4.181124
 H         3.158941         1.784714        -0.653540
 H         2.658087         3.325696        -0.376845
 H         0.384034         2.401820         0.082807
 H         0.911784        -0.060629        -1.494269
 H        -0.619144         1.034155        -1.308588
 H         0.849779         1.001681        -3.718728
 H         2.022352        -0.251337         0.451101
