19
Iteration:  2300charge 0 multiplicity 1
 C         3.507812         2.546789        -2.967669
 C         2.093186         2.519831        -2.295120
 C         1.946587         2.874132        -0.780854
 C         1.055384         1.819348        -0.094923
 C         0.261134         1.178751        -1.324118
 C         1.003435         1.609501        -2.660411
 O         0.809243         2.972177        -3.034851
 C         1.637136         0.697224         0.571382
 O         1.499356         0.411200         1.738963
 H         3.855834         3.543290        -2.749834
 H         4.134949         1.687314        -2.637474
 H         3.476821         2.577186        -4.011534
 H         2.914945         2.762425        -0.235567
 H         1.644040         3.984327        -0.490105
 H         0.341854         2.289166         0.676053
 H         0.130969         0.062426        -1.247186
 H        -0.742923         1.584170        -1.445943
 H         1.391734         0.852296        -3.434372
 H         2.430011         0.185031        -0.047326
