19
Iteration:  1880
 C         3.074445         3.220417        -3.319994
 C         2.179751         2.453400        -2.335180
 C         2.685820         2.041551        -0.983001
 C         1.338471         1.506876        -0.356932
 C         0.557450         0.804956        -1.607867
 C         0.939019         1.658086        -2.737082
 O         0.894750         3.027824        -2.379867
 C         1.362040         0.663267         0.904259
 O         0.928225         1.102904         1.926414
 H         3.420659         4.252418        -2.911646
 H         3.903309         2.627020        -3.677138
 H         2.402039         3.497251        -4.168880
 H         3.559595         1.319392        -1.354645
 H         3.075458         2.813948        -0.325795
 H         0.789961         2.344850        -0.006055
 H         0.752673        -0.232206        -1.630248
 H        -0.622695         0.870984        -1.416382
 H         0.611356         1.233428        -3.815934
 H         1.859559        -0.373449         0.845981
