19
Iteration:   116
 C         3.234359         2.492193        -3.471569
 C         2.220685         2.441542        -2.397850
 C         2.601168         2.312535        -0.923905
 C         1.246512         1.960558        -0.172839
 C         0.346367         1.284531        -1.287010
 C         0.901240         1.761767        -2.581804
 O         1.031204         3.216194        -2.446012
 C         1.353705         1.158059         1.147649
 O         0.955562         0.009851         1.323256
 H         3.776805         3.490491        -3.586396
 H         4.023990         1.756521        -3.204891
 H         2.813139         2.298176        -4.411008
 H         3.348318         1.385241        -0.945617
 H         3.116730         3.292906        -0.724089
 H         0.791859         2.941445         0.135913
 H         0.560394         0.083007        -1.089777
 H        -0.778024         1.439533        -1.255541
 H         0.548655         1.546940        -3.662904
 H         1.726124         1.817334         1.988864
