19
Iteration:  1998charge 0 multiplicity 1
 C         3.292340         2.940424        -3.255764
 C         2.201797         2.492190        -2.331186
 C         2.375089         2.475861        -0.859362
 C         1.020201         1.759905        -0.290155
 C         0.490814         0.973465        -1.446276
 C         0.950811         1.647088        -2.685313
 O         0.833109         3.055616        -2.822802
 C         1.400321         0.688794         0.830175
 O         1.265915         0.606365         2.018452
 H         3.632110         3.965227        -2.985765
 H         4.150806         2.226635        -3.179485
 H         2.956619         3.044635        -4.241347
 H         3.121343         1.655144        -0.740267
 H         2.844284         3.296567        -0.349128
 H         0.350523         2.519911         0.052835
 H         0.790576        -0.111849        -1.476538
 H        -0.627861         0.821007        -1.270983
 H         1.092095         0.997134        -3.652947
 H         1.893043        -0.117463         0.211218
