19
Iteration:  2556
 C         2.971869         3.178119        -3.551040
 C         2.214759         2.509180        -2.422090
 C         2.656043         2.196415        -0.878386
 C         1.430239         1.651192        -0.260244
 C         0.910515         0.785413        -1.505522
 C         1.035461         1.614857        -2.686353
 O         0.767538         3.009100        -2.404072
 C         1.423610         0.802462         0.992921
 O         0.599489         0.808214         1.869819
 H         2.935407         4.273020        -3.523242
 H         3.936942         2.701630        -3.745562
 H         2.460995         3.024717        -4.533572
 H         3.448662         1.283970        -0.802181
 H         3.230199         3.143999        -0.462206
 H         0.670540         2.467351         0.007039
 H         1.320424        -0.217603        -1.662710
 H        -0.223986         0.631517        -1.300583
 H         0.814830         1.184253        -3.716861
 H         2.371751         0.199336         1.071188
