19
Iteration:   178
 C         3.358892         2.353299        -3.249510
 C         2.185225         2.290779        -2.328553
 C         2.440714         2.024596        -0.863756
 C         1.013920         2.039206        -0.276992
 C         0.176509         1.410365        -1.341271
 C         0.831442         1.917253        -2.599513
 O         1.036433         3.294343        -2.477421
 C         1.100865         1.178062         1.022139
 O         1.656040         0.129934         1.249759
 H         4.051001         3.122427        -2.950119
 H         3.901333         1.390534        -3.055138
 H         3.142134         2.530923        -4.375320
 H         2.742426         1.028276        -0.674678
 H         3.130834         2.754050        -0.407293
 H         0.704831         3.024658         0.095540
 H         0.275926         0.396049        -1.237427
 H        -0.879021         1.605326        -1.336840
 H         0.386935         1.599455        -3.549560
 H         0.760411         1.808218         1.806299
