19
Iteration:   825charge 0 multiplicity 1
 C         3.411469         2.190951        -2.972849
 C         2.072429         2.342928        -2.238683
 C         2.213570         2.590675        -0.753232
 C         1.005011         1.847967        -0.143447
 C        -0.026119         1.584669        -1.388530
 C         0.759102         1.805605        -2.646950
 O         1.094617         3.187445        -2.913283
 C         1.484036         0.568854         0.502721
 O         1.749530         0.490622         1.708910
 H         3.859740         3.164509        -3.090912
 H         4.097493         1.492493        -2.419672
 H         3.370762         1.960819        -3.956557
 H         3.124968         2.277823        -0.209127
 H         2.007641         3.635179        -0.622420
 H         0.486937         2.320793         0.655205
 H        -0.391959         0.511676        -1.281602
 H        -0.871101         2.314896        -1.361813
 H         0.597290         1.171534        -3.533493
 H         1.768525        -0.259042        -0.191943
