19
Iteration:  3040charge 0 multiplicity 1
 C         3.469137         2.706285        -2.795281
 C         2.019045         2.592031        -2.296235
 C         1.827627         2.920665        -0.740739
 C         0.987659         1.745883        -0.215096
 C         0.337992         1.085729        -1.404272
 C         1.115975         1.504796        -2.596414
 O         0.769900         2.826853        -3.113315
 C         1.724014         0.702735         0.581530
 O         1.537970         0.559948         1.747575
 H         3.947820         3.687635        -2.654943
 H         4.028910         1.908379        -2.265515
 H         3.674046         2.350037        -3.969028
 H         2.766534         2.921331        -0.363500
 H         1.293768         3.951582        -0.521641
 H         0.244913         2.137862         0.542168
 H         0.676181         0.028266        -1.277026
 H        -0.687464         1.530009        -1.589872
 H         1.498468         0.790808        -3.395452
 H         2.423410         0.017823        -0.034998
