19
Iteration:  3253charge 0 multiplicity 1
 C         3.090904         3.153649        -3.426758
 C         2.091251         2.535323        -2.457326
 C         2.610412         2.448560        -0.914108
 C         1.451139         1.657172        -0.270918
 C         0.977446         0.683519        -1.344670
 C         1.032190         1.566288        -2.637996
 O         0.645821         2.926840        -2.507457
 C         1.511915         0.953958         0.993721
 O         0.583280         0.657428         1.688827
 H         3.191274         4.184215        -2.938139
 H         3.948339         2.430231        -3.694669
 H         2.494403         3.273857        -4.275872
 H         3.541336         1.932567        -0.926373
 H         2.768204         3.319976        -0.402907
 H         0.639126         2.277415        -0.178489
 H         1.830435        -0.039149        -1.535997
 H         0.066727         0.338939        -0.891702
 H         0.804611         1.158340        -3.574203
 H         2.407822         0.406946         1.253002
