19
Iteration:  1714charge 0 multiplicity 1
 C         3.407571         2.761280        -3.131062
 C         2.087244         2.497915        -2.299661
 C         2.280903         2.680188        -0.831709
 C         1.129988         1.968656        -0.162408
 C         0.219614         1.270374        -1.250501
 C         0.935703         1.561843        -2.607835
 O         0.864476         2.888879        -2.991931
 C         1.618430         0.770751         0.721362
 O         1.258220         0.274497         1.738369
 H         3.893099         3.669712        -2.727416
 H         4.217508         2.024228        -3.087343
 H         3.157351         2.740563        -4.147646
 H         3.352477         2.251587        -0.729465
 H         2.424249         3.691020        -0.444679
 H         0.469033         2.573604         0.437906
 H         0.139606         0.164215        -1.191734
 H        -0.789547         1.799221        -1.132438
 H         1.087813         0.692152        -3.378921
 H         2.494862         0.250549         0.226982
