19
Iteration:  4733charge 0 multiplicity 1
 C         3.386956         3.062409        -2.593595
 C         2.031057         2.614005        -2.157118
 C         1.429044         3.079898        -0.824146
 C         0.713905         1.835324        -0.173054
 C         0.515905         0.847313        -1.341860
 C         1.350808         1.350625        -2.564859
 O         0.996413         2.558313        -3.215558
 C         1.488279         1.227962         0.959171
 O         1.885209         0.098998         1.113787
 H         3.393296         4.149291        -2.865614
 H         4.151858         2.793206        -1.848963
 H         3.363113         2.583796        -3.701730
 H         2.260210         3.439699        -0.118244
 H         0.654700         3.782775        -0.972006
 H        -0.228589         1.931810         0.456151
 H         0.917984        -0.045892        -1.001638
 H        -0.517861         0.715268        -1.518628
 H         1.699746         0.445648        -3.100485
 H         1.803202         2.058382         1.636775
