19
Iteration:   670
 C         3.180479         2.567053        -3.514653
 C         2.215934         2.487903        -2.418784
 C         2.555783         1.962408        -1.029968
 C         1.187773         1.719222        -0.235314
 C         0.334835         1.187588        -1.500499
 C         0.908963         1.900421        -2.676924
 O         0.971710         3.367084        -2.436052
 C         1.323496         0.584352         0.854693
 O         1.190348         0.831673         2.054701
 H         3.812195         3.514537        -3.541988
 H         3.976846         1.751349        -3.085612
 H         2.824586         2.289862        -4.487211
 H         3.197444         1.038677        -1.045294
 H         3.205885         2.593493        -0.293785
 H         0.687997         2.649235         0.144771
 H         0.422375         0.069909        -1.690777
 H        -0.772011         1.444455        -1.310472
 H         0.579620         1.607456        -3.754163
 H         1.555310        -0.404875         0.479937
