19
Iteration:  2443charge 0 multiplicity 1
 C         3.280780         2.778201        -3.246872
 C         2.137686         2.531043        -2.318655
 C         2.320117         2.595396        -0.756644
 C         1.059793         1.825589        -0.296577
 C         0.452995         1.041740        -1.439007
 C         1.068374         1.587774        -2.694342
 O         0.784256         2.976504        -2.746571
 C         1.621217         0.848870         0.764702
 O         1.141182         0.452399         1.845321
 H         3.631087         3.748402        -3.084560
 H         3.938067         1.974961        -3.013765
 H         2.971716         2.720095        -4.259650
 H         3.334230         2.318530        -0.368881
 H         2.228443         3.707065        -0.406285
 H         0.478480         2.539885         0.237020
 H         0.902328         0.033702        -1.236620
 H        -0.614597         0.884554        -1.469477
 H         0.980045         0.960531        -3.574943
 H         2.611639         0.357672         0.481283
