19
Iteration:  2223charge 0 multiplicity 1
 C         3.484422         2.537563        -2.905919
 C         2.060129         2.482228        -2.246696
 C         2.052897         2.953354        -0.771351
 C         0.968903         1.870190        -0.144062
 C         0.160872         1.160913        -1.361444
 C         0.978367         1.461724        -2.551807
 O         0.889919         2.998625        -2.937140
 C         1.727187         0.705476         0.477804
 O         1.522520         0.432616         1.654408
 H         3.539203         3.645984        -3.076417
 H         4.300929         2.106982        -2.209737
 H         3.505254         2.055256        -3.848800
 H         3.021193         2.864530        -0.294099
 H         1.663616         4.054601        -0.865560
 H         0.141691         2.431702         0.457940
 H         0.069278         0.063204        -1.285160
 H        -0.757814         1.700266        -1.591180
 H         1.137945         0.736033        -3.432185
 H         2.165399        -0.007377        -0.261720
