19
Iteration:  3828
 C         3.181245         3.212493        -3.002869
 C         2.065050         2.582331        -2.248980
 C         2.034158         2.634212        -0.670971
 C         0.902489         1.703667        -0.422409
 C         1.019544         0.580338        -1.545729
 C         1.321412         1.488537        -2.679566
 O         0.742284         2.746508        -2.689264
 C         0.869708         1.190173         1.002046
 O         1.702985         0.473049         1.447305
 H         2.946220         4.201248        -3.341757
 H         4.089201         3.044162        -2.438073
 H         3.449891         2.681192        -3.937190
 H         3.026293         2.129696        -0.449585
 H         1.671077         3.615661        -0.318861
 H         0.019571         2.196906        -0.694836
 H         1.899400        -0.013160        -1.303487
 H         0.178708        -0.101983        -1.801799
 H         1.431487         1.067924        -3.656147
 H         0.020452         1.564512         1.662190
