19
Iteration:   923charge 0 multiplicity 1
 C         3.440426         2.153588        -2.921179
 C         2.076024         2.446343        -2.250527
 C         2.143673         2.835775        -0.780420
 C         1.021240         1.930405        -0.051826
 C         0.012290         1.698001        -1.265739
 C         0.856773         1.739661        -2.487959
 O         1.007803         3.052769        -3.089397
 C         1.637319         0.573723         0.446135
 O         1.592250         0.245454         1.612371
 H         4.131845         3.004296        -2.863715
 H         3.940448         1.165967        -2.438967
 H         3.375916         2.031189        -3.948077
 H         3.184718         2.610703        -0.527346
 H         1.932335         3.866806        -0.472784
 H         0.464029         2.501608         0.643278
 H        -0.574022         0.723714        -1.150695
 H        -0.685162         2.557401        -1.404217
 H         0.806571         0.859755        -3.137526
 H         2.151762        -0.014104        -0.310176
