19
Iteration:   254charge 0 multiplicity 1
 C         3.281761         2.053734        -3.263772
 C         2.152545         2.419408        -2.279750
 C         2.495598         2.324643        -0.704805
 C         0.928490         1.821595        -0.172790
 C         0.002584         1.635723        -1.414800
 C         0.785868         1.952973        -2.612267
 O         1.199014         3.373241        -2.660522
 C         0.976650         0.724258         0.856388
 O         1.980133         0.328565         1.454181
 H         4.189625         2.607122        -3.117585
 H         3.526797         0.968029        -3.164751
 H         2.934380         2.294735        -4.324987
 H         3.283169         1.689639        -0.658072
 H         2.624545         3.321352        -0.332776
 H         0.552101         2.600524         0.524545
 H        -0.336062         0.625922        -1.512712
 H        -0.916253         2.228355        -1.404002
 H         0.469198         1.544673        -3.585202
 H        -0.067618         0.325338         1.008487
