19
Iteration:  1364charge 0 multiplicity 1
 C         3.276616         2.882008        -3.266760
 C         2.150285         2.498871        -2.328728
 C         2.468605         2.159938        -0.866865
 C         1.105586         1.588595        -0.352207
 C         0.368953         1.064226        -1.583016
 C         0.978318         1.683588        -2.730035
 O         0.884227         3.155027        -2.612161
 C         1.164020         0.592472         0.844132
 O         1.461517         0.930295         2.019954
 H         4.167685         3.560752        -3.001835
 H         3.853129         2.073466        -3.752883
 H         2.745982         3.351243        -4.168416
 H         3.168230         1.269873        -0.923653
 H         2.882050         2.844513        -0.188995
 H         0.605286         2.409515         0.187200
 H         0.447590        -0.011088        -1.547384
 H        -0.706882         1.369673        -1.680024
 H         0.900995         1.248402        -3.733490
 H         0.832695        -0.485544         0.736215
