19
Iteration:  3527charge 0 multiplicity 1
 C         3.423227         2.795070        -2.730673
 C         2.027068         2.545634        -2.137109
 C         1.673152         2.779665        -0.729776
 C         0.890267         1.583865        -0.331353
 C         0.454390         0.798726        -1.610893
 C         1.129231         1.482646        -2.749964
 O         0.841616         2.932627        -2.991253
 C         1.538921         0.639075         0.643856
 O         1.801478         1.000621         1.772753
 H         3.607988         3.866572        -2.713907
 H         4.130638         2.303725        -2.071141
 H         3.570238         2.340897        -3.639324
 H         2.648595         2.903782        -0.122383
 H         1.109041         3.712110        -0.585729
 H         0.010119         1.881429         0.132712
 H         0.689417        -0.240596        -1.721052
 H        -0.630972         0.714554        -1.730642
 H         1.546283         1.081134        -3.641524
 H         1.977437        -0.365660         0.363797
