19
Iteration:  2133
 C         3.483229         2.594193        -2.936949
 C         2.107340         2.523831        -2.288334
 C         2.047108         2.823325        -0.796130
 C         0.956636         1.826354        -0.213518
 C         0.129478         1.154571        -1.323559
 C         0.974297         1.567631        -2.637255
 O         0.886500         2.961775        -2.961093
 C         1.737287         0.669706         0.574621
 O         1.481452         0.468101         1.702475
 H         3.891616         3.562924        -2.693966
 H         4.082649         1.791079        -2.617598
 H         3.538830         2.541240        -4.086621
 H         2.953844         2.777210        -0.154801
 H         1.627174         3.840658        -0.602695
 H         0.404151         2.309805         0.622190
 H        -0.025463         0.083344        -1.221570
 H        -0.888097         1.676102        -1.320124
 H         1.164429         0.933377        -3.434614
 H         2.712742         0.298131         0.122021
