19
Iteration:    84charge 0 multiplicity 1
 C         3.232568         2.559532        -3.406144
 C         2.157340         2.424799        -2.312149
 C         2.670982         2.376025        -0.871372
 C         1.359022         1.901203        -0.179758
 C         0.425035         1.165454        -1.204531
 C         0.851607         1.805200        -2.488079
 O         0.954966         3.170960        -2.579490
 C         1.557755         1.009107         0.986204
 O         0.686749         0.242414         1.265819
 H         3.869049         3.544930        -3.342697
 H         3.947460         1.698977        -3.370649
 H         2.782841         2.541570        -4.352899
 H         3.480245         1.495055        -0.867476
 H         3.235008         3.299596        -0.554492
 H         0.800963         2.804409         0.180906
 H         0.921259         0.022963        -1.130427
 H        -0.660374         1.021066        -0.875301
 H         0.495679         1.361478        -3.539909
 H         2.359086         1.312134         1.607717
