19
Iteration:  2594
 C         3.069522         3.214084        -3.434640
 C         2.107596         2.508866        -2.437274
 C         2.636972         2.241234        -0.976596
 C         1.480814         1.545873        -0.287052
 C         0.774428         0.653377        -1.466955
 C         0.989186         1.571577        -2.651595
 O         0.794846         3.048783        -2.461936
 C         1.472206         0.820694         0.986926
 O         0.657438         0.881624         1.855092
 H         3.107715         4.347139        -3.201904
 H         4.127404         2.958354        -3.162269
 H         2.796862         2.942880        -4.483636
 H         3.467027         1.511074        -1.109045
 H         2.850601         3.101050        -0.454824
 H         0.660648         2.209745        -0.238316
 H         1.015473        -0.419584        -1.706748
 H        -0.262478         0.823266        -1.223559
 H         0.740025         1.305638        -3.623358
 H         2.441063         0.285389         1.168568
