19
Iteration:  2970
 C         3.414467         2.755782        -2.779312
 C         2.089940         2.482468        -2.140400
 C         1.814348         2.846004        -0.676688
 C         0.799941         1.754297        -0.289740
 C         0.066995         1.159233        -1.514165
 C         1.126529         1.372770        -2.590762
 O         0.960470         2.781684        -3.008059
 C         1.740715         0.789429         0.460247
 O         1.727390         0.621928         1.681660
 H         3.632983         3.882450        -2.921872
 H         4.335011         2.407833        -2.205906
 H         3.574234         2.304848        -3.711110
 H         2.821665         2.838420        -0.131085
 H         1.434739         3.821654        -0.556419
 H         0.073133         2.123170         0.561887
 H        -0.002817         0.104915        -1.335935
 H        -0.829942         1.783799        -1.616043
 H         1.361760         0.562622        -3.283528
 H         2.540303         0.396616        -0.187914
