19
Iteration:  3978charge 0 multiplicity 1
 C         3.303899         3.127737        -2.966481
 C         2.001716         2.744093        -2.254183
 C         1.672924         3.064017        -0.836066
 C         0.888090         1.725937        -0.252768
 C         0.909420         0.689257        -1.327538
 C         1.454122         1.430392        -2.579670
 O         0.763834         2.619984        -3.020977
 C         1.329622         1.226373         1.106485
 O         1.501460         0.038083         1.304708
 H         3.594995         4.174506        -2.894443
 H         4.104995         2.826124        -2.346346
 H         3.597616         2.686227        -4.027146
 H         2.548220         3.360274        -0.256723
 H         1.011737         3.859277        -0.672682
 H        -0.121563         2.134165         0.038336
 H         1.537861        -0.204750        -1.019648
 H        -0.139430         0.289269        -1.608421
 H         1.968540         0.767732        -3.280248
 H         1.505842         2.065088         1.856051
