19
Iteration:  2213
 C         3.369407         2.533337        -2.882387
 C         2.083425         2.465319        -2.280851
 C         2.089703         2.925218        -0.773191
 C         0.966695         1.913004        -0.168816
 C         0.223723         1.182374        -1.351936
 C         1.094372         1.527630        -2.519411
 O         0.841007         2.976552        -3.028908
 C         1.615305         0.731471         0.485249
 O         1.552353         0.392164         1.665671
 H         3.749609         3.603268        -2.995977
 H         4.251484         2.220560        -2.129901
 H         3.425208         2.025638        -3.819978
 H         2.958637         2.859941        -0.183482
 H         1.755654         4.022806        -0.602169
 H         0.427482         2.195132         0.835305
 H        -0.018313         0.096668        -1.196617
 H        -0.769546         1.559801        -1.507666
 H         1.154684         0.797008        -3.431615
 H         2.037192        -0.011069        -0.241490
