19
Iteration:  3387charge 0 multiplicity 1
 C         3.218616         3.043402        -3.250996
 C         2.079207         2.638422        -2.313425
 C         2.233702         2.567323        -0.755174
 C         1.048331         1.618565        -0.312308
 C         0.711244         0.712545        -1.551790
 C         1.184892         1.470877        -2.742833
 O         0.753861         2.927841        -2.716153
 C         1.619058         0.831096         0.868034
 O         1.033091         0.759963         1.928064
 H         3.287692         4.169956        -3.259561
 H         4.203707         2.573037        -3.109248
 H         3.033810         2.691557        -4.345915
 H         3.273388         2.341908        -0.638296
 H         2.151522         3.505011        -0.315356
 H         0.197777         2.118442         0.188326
 H         1.234698        -0.258902        -1.371181
 H        -0.393832         0.409216        -1.531594
 H         1.302077         1.163802        -3.808757
 H         2.532717         0.310967         0.546651
