19
Iteration:   300charge 0 multiplicity 1
 C         3.344465         2.055412        -3.241089
 C         2.108689         2.313346        -2.355265
 C         2.370598         2.312467        -0.725362
 C         1.069288         1.953816        -0.086572
 C        -0.129400         1.797870        -1.313684
 C         0.659385         2.044193        -2.614054
 O         1.275687         3.327835        -2.748354
 C         1.193683         0.454946         0.620259
 O         1.840781         0.391789         1.642566
 H         4.002072         3.020106        -3.225749
 H         3.988086         1.223941        -2.739906
 H         3.081895         1.894609        -4.271538
 H         3.101380         1.566777        -0.467814
 H         2.571074         3.315480        -0.443187
 H         0.770749         2.731601         0.663074
 H        -0.342603         0.778399        -1.381040
 H        -1.087940         2.240063        -1.047599
 H         0.266531         1.512808        -3.648392
 H         0.984485        -0.357555        -0.123772
