19
Iteration:   282
 C         3.327477         2.036621        -3.228420
 C         2.159773         2.273983        -2.322471
 C         2.376127         2.371482        -0.811099
 C         0.963393         1.835755        -0.153332
 C         0.030837         1.716566        -1.304500
 C         0.740896         2.056822        -2.599132
 O         1.185377         3.403050        -2.706148
 C         1.120877         0.563770         0.686995
 O         1.883125         0.355237         1.608911
 H         4.054496         2.872673        -3.131150
 H         3.826547         1.102775        -2.988620
 H         3.001470         1.894517        -4.264348
 H         3.350078         1.758836        -0.574512
 H         2.523506         3.468208        -0.607132
 H         0.669903         2.522446         0.654251
 H        -0.406958         0.649397        -1.345397
 H        -0.775442         2.469662        -1.242441
 H         0.377700         1.629810        -3.535616
 H         0.252355        -0.137646         0.406247
