19
Iteration:  3453charge 0 multiplicity 1
 C         3.398935         3.074035        -2.874441
 C         2.089260         2.570457        -2.333864
 C         2.015104         2.680146        -0.787668
 C         0.927271         1.634853        -0.282588
 C         0.437278         0.844910        -1.522090
 C         1.188341         1.388933        -2.718974
 O         0.769567         2.810289        -3.002547
 C         1.534375         0.697973         0.708996
 O         1.524049         0.864297         1.939382
 H         3.398896         4.149050        -2.483388
 H         4.315030         2.526017        -2.652822
 H         3.124227         3.205802        -4.050698
 H         2.906610         2.241422        -0.243843
 H         1.700734         3.603694        -0.398474
 H         0.062267         2.173865         0.193099
 H         0.470460        -0.260554        -1.531645
 H        -0.651255         0.957808        -1.836019
 H         1.526673         0.819816        -3.581000
 H         1.938945        -0.290297         0.352677
