19
Iteration:  2500charge 0 multiplicity 1
 C         3.224400         2.957583        -3.326973
 C         2.142644         2.508755        -2.441536
 C         2.517348         2.479174        -0.948909
 C         1.338726         1.665030        -0.269181
 C         0.657174         0.803739        -1.421486
 C         0.938274         1.661444        -2.682055
 O         0.709873         3.027583        -2.642665
 C         1.602974         0.841519         0.974267
 O         0.799978         0.608586         1.883898
 H         3.784697         3.686748        -2.820909
 H         3.989876         2.277884        -3.643257
 H         2.775411         3.467509        -4.217754
 H         3.536049         1.946473        -0.884636
 H         2.489077         3.544404        -0.539206
 H         0.675692         2.421621         0.101727
 H         1.081354        -0.222178        -1.480238
 H        -0.399550         0.792760        -1.230304
 H         0.790120         1.167179        -3.643005
 H         2.608858         0.344964         0.930987
