19
Iteration:   182
 C         3.354064         2.321837        -3.230110
 C         2.210235         2.267783        -2.338749
 C         2.434262         2.021527        -0.878857
 C         1.011442         2.023545        -0.249497
 C         0.182003         1.448085        -1.345543
 C         0.832652         1.918085        -2.601751
 O         1.010616         3.301242        -2.457127
 C         1.096723         1.180247         0.988694
 O         1.686855         0.150930         1.226742
 H         4.102013         3.115852        -2.889054
 H         3.904419         1.388377        -3.033116
 H         3.188500         2.555411        -4.216759
 H         2.813079         0.912428        -0.670929
 H         2.980720         2.822005        -0.340194
 H         0.708695         3.025684         0.088787
 H         0.267327         0.275169        -1.215436
 H        -0.923494         1.616836        -1.353773
 H         0.321118         1.608681        -3.590670
 H         0.610505         1.883372         1.798577
