19
Iteration:  2321
 C         3.423170         2.644041        -2.955818
 C         2.098774         2.515914        -2.243114
 C         2.071969         2.869012        -0.852500
 C         1.041324         1.875098        -0.245307
 C         0.250745         1.152650        -1.348683
 C         0.962554         1.498003        -2.520597
 O         0.918572         2.939413        -2.893907
 C         1.655763         0.685744         0.555244
 O         1.439417         0.454065         1.669727
 H         3.799985         3.629740        -2.734045
 H         3.804944         1.724623        -2.557803
 H         3.393538         2.565944        -3.970550
 H         3.094396         2.962364        -0.351017
 H         1.497561         3.930678        -0.801760
 H         0.337023         2.188251         0.628055
 H         0.461642         0.058936        -1.214749
 H        -0.834630         1.475706        -1.432519
 H         0.963378         0.897886        -3.506292
 H         2.280877        -0.005920        -0.117046
