19
Iteration:  4488
 C         3.117858         3.492043        -3.215482
 C         2.102584         2.709531        -2.315905
 C         2.084165         2.769581        -0.772982
 C         1.023963         1.695426        -0.345879
 C         1.146501         0.593354        -1.353620
 C         1.450364         1.387366        -2.662998
 O         0.705244         2.628937        -2.763489
 C         1.198707         1.253735         1.081727
 O         1.087006         0.088737         1.502199
 H         3.115557         4.621101        -2.761074
 H         4.239327         3.086682        -3.026119
 H         2.807279         3.437444        -4.330563
 H         3.065726         2.512605        -0.363000
 H         1.829219         3.776638        -0.560993
 H         0.005545         2.110650        -0.402759
 H         1.945568        -0.079907        -1.132676
 H         0.311017        -0.078231        -1.385445
 H         1.638291         0.726800        -3.579633
 H         1.435270         2.170257         1.768115
