19
Iteration:  4263charge 0 multiplicity 1
 C         3.152119         3.332717        -3.113315
 C         2.046751         2.655654        -2.239670
 C         2.052627         2.854530        -0.711770
 C         0.938166         1.726533        -0.302562
 C         1.007658         0.624161        -1.333523
 C         1.432649         1.337667        -2.550848
 O         0.803654         2.676568        -2.902065
 C         1.038040         1.282345         1.091981
 O         1.403301         0.125878         1.298667
 H         2.906590         4.410500        -3.228596
 H         4.127054         3.019942        -2.774064
 H         2.954800         2.825736        -4.182224
 H         2.937807         2.466968        -0.354249
 H         1.978942         3.875722        -0.318046
 H         0.021129         2.356537        -0.287076
 H         1.865331         0.050827        -1.217231
 H         0.078769         0.069171        -1.488123
 H         1.540473         0.886057        -3.532451
 H         0.834459         2.018782         1.968831
