19
Iteration:  1130charge 0 multiplicity 1
 C         3.388752         2.302327        -3.293845
 C         2.153446         2.515232        -2.317387
 C         2.337911         2.618205        -0.844056
 C         1.062880         1.938665        -0.178582
 C         0.272539         1.199518        -1.285248
 C         0.854970         1.800351        -2.622256
 O         0.934906         3.237394        -2.783597
 C         1.582861         0.800466         0.690784
 O         1.205207         0.313470         1.809908
 H         4.023953         3.203074        -3.179264
 H         4.053126         1.347793        -2.966497
 H         3.051684         2.239260        -4.280401
 H         3.274436         1.962577        -0.845072
 H         2.514963         3.644349        -0.351820
 H         0.653906         2.697680         0.489495
 H         0.677357         0.166611        -1.401325
 H        -0.791660         1.089916        -1.162023
 H         0.689960         1.173356        -3.533156
 H         2.333197         0.188232         0.053850
