19
Iteration:  1608
 C         3.465924         2.411516        -2.908425
 C         2.082827         2.483250        -2.243149
 C         2.025434         2.751053        -0.805945
 C         0.985182         1.917694        -0.151741
 C         0.134867         1.295736        -1.370547
 C         0.961721         1.604770        -2.588761
 O         0.894977         3.031120        -2.890189
 C         1.705000         0.783167         0.465526
 O         1.529079         0.383776         1.666590
 H         3.800305         3.481616        -3.138096
 H         4.080356         1.791800        -2.258186
 H         3.496630         2.083928        -3.941188
 H         2.991796         2.524957        -0.373615
 H         1.917769         3.820348        -0.741591
 H         0.403417         2.295043         0.677378
 H         0.158042         0.176132        -1.343071
 H        -0.934174         1.556766        -1.365438
 H         0.983518         0.975870        -3.506505
 H         2.560445         0.301657        -0.168805
