19
Iteration:  3444charge 0 multiplicity 1
 C         3.371407         3.121553        -2.955970
 C         2.046767         2.551595        -2.334471
 C         2.053324         2.700786        -0.823452
 C         0.944752         1.618843        -0.345037
 C         0.446201         0.843349        -1.534032
 C         1.231313         1.441830        -2.677641
 O         0.795277         2.776352        -2.977971
 C         1.498655         0.716367         0.791256
 O         1.479111         0.795155         1.982745
 H         3.611682         4.130068        -2.588981
 H         4.237236         2.569562        -2.718059
 H         3.304728         3.238091        -4.112134
 H         3.044949         2.469688        -0.537642
 H         1.683080         3.603379        -0.431399
 H         0.045807         2.181486         0.138413
 H         0.683411        -0.231127        -1.388175
 H        -0.608035         1.078089        -1.688690
 H         1.230329         0.852276        -3.541107
 H         1.842501        -0.356218         0.376103
