19
Iteration:  4706charge 0 multiplicity 1
 C         3.285183         3.232920        -2.713387
 C         2.003685         2.657572        -2.195181
 C         1.605233         3.012814        -0.799422
 C         0.751913         1.863052        -0.232064
 C         0.472489         0.853429        -1.420935
 C         1.469403         1.279871        -2.457667
 O         0.960169         2.458840        -3.179822
 C         1.486888         1.244231         1.027345
 O         1.774182         0.066106         1.146061
 H         3.198152         4.322705        -2.705256
 H         4.154727         2.850215        -2.122861
 H         3.351100         2.954911        -3.706325
 H         2.567099         3.032835        -0.211197
 H         0.993880         4.000586        -0.693692
 H        -0.203859         2.039683         0.294642
 H         0.550046        -0.248557        -0.981066
 H        -0.583585         1.013351        -1.816512
 H         2.109089         0.503389        -2.859805
 H         1.805967         1.980303         1.830286
