19
Iteration:  2408
 C         3.424044         2.741016        -3.157999
 C         2.145938         2.534548        -2.356166
 C         2.213167         2.742581        -0.822012
 C         1.176682         1.764023        -0.222595
 C         0.337634         1.068791        -1.272079
 C         0.970870         1.609910        -2.584577
 O         0.781088         2.981956        -2.897772
 C         1.667514         0.644440         0.658014
 O         1.178784         0.499454         1.811236
 H         3.583187         3.862873        -3.168617
 H         4.373671         2.469176        -2.692680
 H         3.430939         2.419286        -4.158092
 H         3.208059         2.718609        -0.314696
 H         1.679707         3.736960        -0.690100
 H         0.475708         2.377760         0.441577
 H         0.661649         0.018358        -1.204532
 H        -0.803555         1.155857        -1.391672
 H         0.969129         1.008045        -3.547075
 H         2.397260        -0.124008         0.230620
