19
Iteration:  2206
 C         3.379540         2.566692        -2.901043
 C         2.099807         2.542504        -2.225511
 C         2.018234         2.871191        -0.767893
 C         0.986436         1.925449        -0.151490
 C         0.236891         1.242800        -1.333615
 C         1.092193         1.560196        -2.562867
 O         0.860781         2.905339        -3.049318
 C         1.553430         0.694389         0.515433
 O         1.578180         0.383452         1.654114
 H         3.724509         3.566106        -3.145425
 H         4.005157         1.983288        -2.215066
 H         3.509520         2.007124        -3.859197
 H         3.032594         2.730348        -0.301946
 H         1.755631         3.862200        -0.581477
 H         0.422972         2.392643         0.619247
 H         0.158724         0.156901        -1.082607
 H        -0.807746         1.572118        -1.405099
 H         1.180402         0.824266        -3.360739
 H         2.173324         0.055493        -0.200746
