19
Iteration:  3871
 C         3.190256         3.306571        -3.099643
 C         2.076967         2.681204        -2.243300
 C         2.058610         2.646230        -0.739640
 C         0.896394         1.701627        -0.357386
 C         0.961955         0.604847        -1.470023
 C         1.367667         1.423772        -2.682249
 O         0.771900         2.728683        -2.853023
 C         0.908632         1.205392         1.113562
 O         1.630886         0.342547         1.509018
 H         2.970138         4.358704        -3.187826
 H         4.090916         3.006017        -2.540100
 H         3.264507         3.078225        -4.231470
 H         2.942189         2.079885        -0.348182
 H         1.824760         3.606501        -0.322485
 H        -0.009756         2.210391        -0.421333
 H         1.822891        -0.121876        -1.461402
 H        -0.042122         0.069786        -1.515056
 H         1.631470         0.847105        -3.539387
 H         0.114796         1.486090         1.837465
