19
Iteration:  1218charge 0 multiplicity 1
 C         3.197599         2.884637        -3.377679
 C         2.210502         2.403663        -2.490876
 C         2.596669         2.034814        -0.964749
 C         1.205601         1.753771        -0.216736
 C         0.395603         1.060509        -1.512690
 C         0.929002         1.778953        -2.701831
 O         0.935370         3.167070        -2.496959
 C         1.222982         0.699122         0.876718
 O         1.163783         0.806099         2.032791
 H         3.726404         3.784762        -3.089141
 H         3.987226         2.075118        -3.622280
 H         2.910290         3.077809        -4.382591
 H         3.114174         1.100656        -1.054099
 H         3.284268         2.798741        -0.495252
 H         0.787492         2.738424        -0.004362
 H         0.747140         0.061417        -1.361215
 H        -0.652658         0.864238        -1.578758
 H         0.567112         1.460629        -3.689058
 H         1.413238        -0.287769         0.414698
