19
Iteration:  4837
 C         3.419315         3.029440        -2.497355
 C         2.064670         2.511359        -1.994076
 C         1.407980         3.118166        -0.802206
 C         0.569030         1.898229        -0.154269
 C         0.265561         0.996126        -1.376823
 C         1.409380         1.161423        -2.338625
 O         1.043530         2.409503        -3.138106
 C         1.390157         1.184512         0.875410
 O         2.236638         0.301788         0.705980
 H         3.398321         4.108866        -2.291744
 H         4.275451         2.581098        -1.887944
 H         3.615757         2.736826        -3.491316
 H         1.962165         3.785698        -0.260025
 H         0.565500         3.820843        -1.200296
 H        -0.313108         2.290916         0.317111
 H         0.017167        -0.093523        -1.142313
 H        -0.689792         1.395040        -1.791583
 H         1.857829         0.223782        -2.764986
 H         1.127730         1.557026         1.866572
