19
Iteration:  2285
 C         3.385715         2.584007        -2.948726
 C         2.083082         2.560805        -2.263256
 C         2.013854         2.799594        -0.767727
 C         0.893244         1.814534        -0.177062
 C         0.220363         1.260002        -1.435563
 C         1.060185         1.601109        -2.585651
 O         0.881523         2.965222        -3.095561
 C         1.757371         0.718532         0.691975
 O         1.543938         0.349842         1.781833
 H         4.119455         3.384311        -2.785781
 H         3.966444         1.803429        -2.533975
 H         3.260707         2.348703        -4.033874
 H         3.045219         2.936518        -0.328361
 H         1.554339         3.772854        -0.752239
 H         0.186761         2.350190         0.458343
 H         0.070782         0.184611        -1.379903
 H        -0.872612         1.627164        -1.461533
 H         0.954581         0.880682        -3.351046
 H         2.520274         0.215233         0.045326
