19
Iteration:   946
 C         3.374672         2.121438        -2.880520
 C         2.045647         2.475491        -2.277509
 C         2.183266         2.804359        -0.706111
 C         1.031017         2.015788        -0.120310
 C        -0.011462         1.637949        -1.276401
 C         0.863545         1.703562        -2.601951
 O         1.015556         3.081240        -3.053660
 C         1.753749         0.716929         0.519911
 O         1.543951         0.161107         1.575849
 H         4.187036         2.861235        -2.869467
 H         3.624525         1.128912        -2.267167
 H         3.359321         1.853721        -3.940045
 H         3.235307         2.567077        -0.376647
 H         2.041827         3.866142        -0.624003
 H         0.420405         2.533776         0.631517
 H        -0.453336         0.626630        -0.964999
 H        -0.806650         2.443344        -1.285844
 H         0.761219         0.920873        -3.328252
 H         2.374523         0.224517        -0.198977
