19
Iteration:  1908charge 0 multiplicity 1
 C         3.199410         3.170291        -3.344066
 C         2.163862         2.486810        -2.440329
 C         2.557228         1.928398        -1.045265
 C         1.246579         1.522233        -0.338173
 C         0.726776         0.668219        -1.629860
 C         0.922376         1.751098        -2.733010
 O         0.764770         3.168297        -2.336935
 C         1.418810         0.759762         0.931829
 O         0.928338         1.071058         2.016722
 H         3.668703         4.049768        -2.956306
 H         4.046054         2.434124        -3.522816
 H         2.784814         3.575684        -4.241422
 H         3.190300         1.092657        -1.270675
 H         3.045992         2.706724        -0.432903
 H         0.568821         2.412139        -0.150146
 H         1.229936        -0.353983        -1.700988
 H        -0.293435         0.363293        -1.557826
 H         0.537583         1.382704        -3.669594
 H         1.866286        -0.298036         0.870210
