19
Iteration:  2916charge 0 multiplicity 1
 C         3.468175         2.635199        -2.772958
 C         2.066238         2.507709        -2.214461
 C         1.638261         2.983521        -0.800473
 C         0.772525         1.768712        -0.153706
 C         0.230971         1.023606        -1.462624
 C         1.073115         1.597410        -2.647419
 O         1.008542         2.896085        -3.146397
 C         1.702976         0.675026         0.580221
 O         1.815143         0.578883         1.776534
 H         3.844229         3.717536        -2.770384
 H         4.142191         2.005647        -2.089036
 H         3.538785         2.097056        -3.683861
 H         2.544346         3.143369        -0.316854
 H         1.195084         3.948518        -0.810195
 H         0.056146         2.129255         0.726235
 H         0.363005        -0.088808        -1.456974
 H        -0.901991         1.172623        -1.532214
 H         1.090157         0.795481        -3.384484
 H         2.112720        -0.198772        -0.088061
