19
Iteration:  2251charge 0 multiplicity 1
 C         3.458015         2.567750        -2.977931
 C         2.153803         2.408650        -2.232267
 C         1.958812         2.767548        -0.729714
 C         0.876813         1.755057        -0.124206
 C         0.143978         1.244814        -1.383235
 C         0.984590         1.598744        -2.593080
 O         0.940809         3.001571        -3.020767
 C         1.796129         0.827536         0.596636
 O         1.537852         0.407261         1.693114
 H         3.599337         3.634234        -3.081501
 H         4.215979         1.997198        -2.518727
 H         3.338759         2.206993        -4.058887
 H         2.819594         2.887338        -0.015956
 H         1.520856         3.704179        -0.826840
 H         0.190413         2.255507         0.479176
 H        -0.039127         0.166931        -1.440714
 H        -0.827548         1.773761        -1.591811
 H         0.940914         0.888752        -3.355659
 H         2.698878         0.508051         0.005925
