19
Iteration:  3729
 C         3.331660         3.108094        -2.826149
 C         2.090763         2.586773        -2.190384
 C         1.819607         2.765267        -0.650766
 C         0.595524         1.807511        -0.296242
 C         0.656221         0.699117        -1.486389
 C         1.442352         1.391981        -2.587944
 O         0.844094         2.659447        -2.919551
 C         0.945139         1.002232         0.958242
 O         2.071637         0.617919         1.208716
 H         3.404702         4.110471        -2.533812
 H         4.177500         2.527835        -2.572378
 H         3.238360         3.293784        -3.946839
 H         2.803223         2.303327        -0.091554
 H         1.497999         3.832512        -0.407673
 H        -0.368453         2.302645        -0.319598
 H         1.209112        -0.122711        -1.056426
 H        -0.390683         0.459531        -1.811377
 H         1.754403         0.634281        -3.404973
 H         0.043406         0.493591         1.482615
