19
Iteration:  4167
 C         3.246180         3.273976        -2.926895
 C         2.044874         2.645561        -2.273741
 C         1.994916         2.631366        -0.758593
 C         0.818481         1.619280        -0.423867
 C         0.982333         0.557156        -1.527729
 C         1.400233         1.415230        -2.794274
 O         0.724713         2.761524        -2.766739
 C         1.024812         1.323045         1.042091
 O         1.603516         0.348680         1.518906
 H         3.198406         4.335466        -2.707315
 H         4.103060         2.801585        -2.576712
 H         3.053468         3.045805        -3.983768
 H         3.014977         2.242827        -0.178450
 H         1.895964         3.621186        -0.337109
 H        -0.166678         2.195270        -0.381679
 H         2.089069         0.196371        -1.316513
 H         0.124573        -0.176340        -1.640482
 H         1.277494         0.891138        -3.756108
 H         0.591049         2.088486         1.818255
