19
Iteration:  3981
 C         3.299639         3.113967        -2.960609
 C         2.034134         2.760462        -2.264173
 C         1.650533         3.050500        -0.838380
 C         0.901997         1.742617        -0.224101
 C         0.888434         0.700727        -1.318803
 C         1.457824         1.426799        -2.584178
 O         0.750737         2.622546        -3.033715
 C         1.331603         1.191088         1.093800
 O         1.502525         0.037002         1.327085
 H         3.571808         4.225232        -3.028039
 H         4.181937         2.806288        -2.255062
 H         3.626262         2.677266        -4.028010
 H         2.526837         3.421828        -0.379950
 H         1.038427         3.925268        -0.689219
 H        -0.082926         2.038053         0.101729
 H         1.611272        -0.152558        -1.046345
 H        -0.132886         0.315171        -1.635783
 H         2.005854         0.881686        -3.346585
 H         1.401146         2.054103         1.778808
