19
Iteration:  4784
 C         3.397158         2.839885        -2.405472
 C         1.974101         2.627846        -2.080141
 C         1.375149         3.029832        -0.795530
 C         0.617063         1.863580        -0.276800
 C         0.444704         0.840639        -1.394785
 C         1.380519         1.368724        -2.476410
 O         0.940090         2.534169        -3.176828
 C         1.575944         1.341031         0.820694
 O         2.052991         0.218210         0.931639
 H         3.522755         3.921628        -2.506659
 H         3.894142         2.629764        -1.503808
 H         3.662352         2.366945        -3.336097
 H         2.128354         3.319358         0.008326
 H         0.733567         4.001884        -0.757743
 H        -0.286917         2.179237         0.277722
 H         0.946807        -0.215289        -1.073353
 H        -0.648407         0.737031        -1.581574
 H         1.806721         0.485889        -2.916050
 H         1.772138         2.181574         1.594490
