19
Iteration:  2116
 C         3.402418         2.560407        -2.918687
 C         2.078752         2.553267        -2.273750
 C         2.000372         2.765127        -0.802172
 C         1.009822         1.839758        -0.158892
 C         0.288327         1.194632        -1.398462
 C         1.037915         1.584123        -2.553565
 O         0.848050         3.001598        -3.004051
 C         1.664734         0.777688         0.610165
 O         1.499407         0.414413         1.726750
 H         4.019038         3.494883        -2.934355
 H         3.948004         1.657473        -2.415469
 H         3.380424         2.374325        -3.971261
 H         3.051927         2.614392        -0.544196
 H         1.875455         3.825109        -0.515421
 H         0.209096         2.362395         0.409864
 H         0.337656         0.046685        -1.464672
 H        -0.758562         1.241279        -1.495917
 H         0.998704         0.877593        -3.480948
 H         2.165827         0.164812        -0.177410
