19
Iteration:  4921
 C         3.482163         2.813464        -2.318919
 C         2.050961         2.490133        -1.940668
 C         1.259011         3.158674        -0.831163
 C         0.521714         1.820230        -0.211061
 C         0.254524         0.886275        -1.393649
 C         1.274526         1.303792        -2.436909
 O         1.047539         2.481320        -3.107001
 C         1.526564         1.314277         0.744810
 O         2.309762         0.361900         0.705206
 H         3.691925         3.838500        -2.638568
 H         4.037083         2.761907        -1.339800
 H         4.010276         2.218161        -2.985118
 H         1.887810         3.481922         0.051653
 H         0.514784         3.749028        -1.076582
 H        -0.483291         2.067792         0.197484
 H         0.298597        -0.021189        -1.001965
 H        -0.776581         1.114153        -1.619712
 H         1.590395         0.490631        -3.135526
 H         1.688067         1.951005         1.607164
