19
Iteration:   754charge 0 multiplicity 1
 C         3.351895         2.264488        -3.114401
 C         2.072682         2.497481        -2.324049
 C         2.314976         2.382645        -0.806830
 C         0.956490         1.895198        -0.181018
 C         0.087099         1.389508        -1.391809
 C         0.943080         1.701617        -2.623667
 O         1.026891         3.290596        -2.750856
 C         1.379070         0.658461         0.604545
 O         1.633116         0.557219         1.766351
 H         4.191276         2.981262        -2.909868
 H         3.575380         1.204649        -3.101831
 H         3.167703         2.708159        -4.212560
 H         3.105613         1.646685        -0.786199
 H         2.606100         3.377040        -0.322835
 H         0.527404         2.766955         0.400926
 H         0.067974         0.278241        -1.361077
 H        -0.922844         1.805683        -1.337569
 H         0.954455         1.034368        -3.449314
 H         1.486203        -0.211773        -0.083391
