19
Iteration:  4891
 C         3.418318         2.888215        -2.376002
 C         1.992270         2.522344        -1.981458
 C         1.358237         3.080165        -0.761678
 C         0.508095         1.915267        -0.140055
 C         0.318709         0.892707        -1.371054
 C         1.384181         1.195555        -2.378917
 O         1.077084         2.439352        -3.126424
 C         1.446030         1.285879         0.899136
 O         2.208322         0.428838         0.499647
 H         3.563694         3.956283        -2.738841
 H         4.092245         2.752294        -1.410242
 H         3.926430         2.238475        -3.083981
 H         2.271804         3.260065        -0.108832
 H         0.673414         4.031080        -0.904116
 H        -0.464102         2.257522         0.181153
 H         0.340168        -0.141456        -0.930687
 H        -0.717179         1.031320        -1.698062
 H         1.794552         0.320926        -2.988869
 H         1.447464         1.629031         2.005639
