19
Iteration:  4497
 C         3.086859         3.518507        -3.167577
 C         2.107046         2.670315        -2.357356
 C         2.149263         2.726419        -0.818430
 C         1.011386         1.720310        -0.337962
 C         1.137068         0.652953        -1.396385
 C         1.455050         1.344150        -2.617028
 O         0.742551         2.583998        -2.766279
 C         1.115184         1.238800         1.098918
 O         1.119223         0.112995         1.527477
 H         3.002959         4.596284        -2.735669
 H         4.195845         3.204629        -3.306099
 H         2.769047         3.716864        -4.156474
 H         3.170989         2.436141        -0.536635
 H         1.833411         3.629977        -0.301929
 H         0.011256         2.199601        -0.437390
 H         1.990425         0.067473        -1.271693
 H         0.215380         0.090897        -1.405910
 H         1.505039         0.955264        -3.676210
 H         1.337083         2.067708         1.824159
