19
Iteration:   409charge 0 multiplicity 1
 C         3.167915         2.076767        -3.406935
 C         2.150913         2.415476        -2.433921
 C         2.545070         2.423289        -0.874457
 C         1.215639         1.893408        -0.086146
 C         0.110105         1.675189        -1.162334
 C         0.808063         1.950539        -2.537388
 O         1.102130         3.400338        -2.753113
 C         1.563291         0.600846         0.649422
 O         1.172289         0.240753         1.754829
 H         4.122785         2.614481        -3.197753
 H         3.372734         0.990973        -3.186965
 H         2.936725         2.257704        -4.410490
 H         3.461210         1.921892        -0.627522
 H         2.869877         3.392455        -0.545664
 H         0.814169         2.686030         0.584711
 H        -0.260448         0.565989        -1.194118
 H        -0.771028         2.290542        -0.841014
 H         0.530168         1.252885        -3.479506
 H         2.373448        -0.032997         0.126465
