19
Iteration:  2465charge 0 multiplicity 1
 C         3.282382         2.838066        -3.338289
 C         2.177696         2.529653        -2.349814
 C         2.280931         2.511432        -0.834726
 C         1.081216         1.774510        -0.185099
 C         0.545101         0.861607        -1.438569
 C         1.055440         1.687524        -2.681207
 O         0.788009         3.051196        -2.804342
 C         1.634013         0.925165         0.884737
 O         1.044783         0.445963         1.919395
 H         3.689539         3.744537        -3.040436
 H         3.921394         2.019878        -3.580459
 H         2.753766         3.172633        -4.203112
 H         3.177387         1.836343        -0.691135
 H         2.731032         3.491627        -0.371033
 H         0.256494         2.364550         0.142130
 H         0.761822        -0.250232        -1.414887
 H        -0.501119         0.996861        -1.487019
 H         1.066727         1.156534        -3.635854
 H         2.694917         0.590325         0.797718
