19
Iteration:  4697
 C         3.258544         3.276858        -2.729370
 C         2.009450         2.692640        -2.209206
 C         1.614077         2.997463        -0.818834
 C         0.777089         1.792498        -0.227165
 C         0.472626         0.876389        -1.350268
 C         1.536304         1.267324        -2.425322
 O         0.946936         2.420210        -3.111795
 C         1.436203         1.222152         0.923661
 O         1.739604         0.074767         1.167073
 H         3.232907         4.402782        -2.653532
 H         4.230374         2.981637        -2.323388
 H         3.434669         2.905224        -3.790624
 H         2.676674         3.101458        -0.278716
 H         1.271476         4.113914        -0.718162
 H        -0.138001         2.396636         0.194064
 H         0.574350        -0.257811        -1.142305
 H        -0.536236         1.031661        -1.730555
 H         1.916119         0.526292        -3.107900
 H         1.687686         1.944555         1.704543
