19
Iteration:  3282
 C         2.913301         3.252030        -3.516703
 C         2.171730         2.572518        -2.414041
 C         2.633925         2.394703        -0.950384
 C         1.427125         1.678187        -0.291308
 C         0.866528         0.733026        -1.353732
 C         1.263754         1.462112        -2.630135
 O         0.746536         2.852914        -2.385447
 C         1.530365         0.892635         0.987527
 O         0.503210         0.719835         1.671455
 H         3.238344         4.211830        -3.249123
 H         3.710253         2.654157        -3.943298
 H         1.983326         3.391407        -4.121869
 H         3.544346         1.730133        -1.028300
 H         2.742853         3.414944        -0.376685
 H         0.652883         2.450182         0.006237
 H         1.535729        -0.150757        -1.314291
 H        -0.154039         0.474566        -1.158203
 H         1.116511         1.100985        -3.650137
 H         2.500207         0.346703         1.328702
