19
Iteration:  1462charge 0 multiplicity 1
 C         3.428937         2.510162        -2.981554
 C         2.061094         2.449941        -2.279774
 C         2.097478         2.417807        -0.661896
 C         0.824572         1.584761        -0.221445
 C         0.049751         1.225050        -1.587950
 C         0.928868         1.681839        -2.723006
 O         1.006579         3.296510        -2.857695
 C         1.587772         0.601395         0.653318
 O         1.767494         0.788847         1.829800
 H         3.885649         3.464822        -3.369314
 H         4.198988         2.004546        -2.366402
 H         3.249246         1.882837        -3.899456
 H         3.036858         1.972891        -0.311946
 H         2.136521         3.405524        -0.388429
 H         0.156860         2.231477         0.349183
 H         0.057155         0.103177        -1.753064
 H        -1.019163         1.577854        -1.555096
 H         0.784389         1.284656        -3.697169
 H         1.973363        -0.312503         0.100562
