19
Iteration:  1203
 C         3.269169         2.785572        -3.438595
 C         2.170329         2.487609        -2.339261
 C         2.502254         2.114858        -0.944719
 C         1.177472         1.766009        -0.271785
 C         0.374537         1.120338        -1.444388
 C         0.941925         1.724886        -2.729892
 O         0.936385         3.187075        -2.569062
 C         1.383749         0.648248         0.825018
 O         1.131801         0.766193         2.033442
 H         3.868421         3.649295        -3.097420
 H         3.900463         1.959639        -3.543571
 H         2.652010         3.017244        -4.314138
 H         3.116980         1.210196        -0.962159
 H         3.051068         2.871737        -0.399603
 H         0.647623         2.555339         0.280998
 H         0.488814        -0.008630        -1.555856
 H        -0.676259         1.402444        -1.261667
 H         0.895557         1.301960        -3.764432
 H         1.699012        -0.351204         0.363033
