19
Iteration:  3165charge 0 multiplicity 1
 C         3.250673         3.057522        -3.208867
 C         2.128908         2.565699        -2.410733
 C         2.221926         2.629609        -0.916531
 C         1.095621         1.776693        -0.168266
 C         0.575171         0.927545        -1.379483
 C         1.152455         1.450236        -2.683677
 O         0.789389         2.887680        -2.856710
 C         1.630946         0.798308         0.855212
 O         1.043409         0.489351         1.906299
 H         3.520039         4.180043        -3.115429
 H         4.246165         2.567145        -2.858870
 H         3.074047         2.948402        -4.279689
 H         3.213307         2.370878        -0.463301
 H         1.983379         3.615741        -0.764219
 H         0.358286         2.371019         0.278960
 H         0.883871        -0.173055        -1.172426
 H        -0.496823         1.011229        -1.456658
 H         1.136949         0.814117        -3.554671
 H         2.645509         0.399044         0.576468
