19
Iteration:  4020charge 0 multiplicity 1
 C         3.281414         3.248202        -2.909970
 C         2.023516         2.618353        -2.287091
 C         1.711492         2.986580        -0.798044
 C         0.852405         1.749838        -0.162760
 C         0.742093         0.678195        -1.417327
 C         1.418559         1.416352        -2.630308
 O         0.893828         2.660118        -3.113906
 C         1.372889         1.207378         1.094884
 O         1.545001         0.061814         1.402636
 H         2.944700         4.190167        -3.283680
 H         4.012705         3.428197        -2.184009
 H         3.621502         2.586751        -3.635840
 H         2.700809         3.030335        -0.192874
 H         1.137028         3.947443        -0.823083
 H        -0.198839         2.136141         0.044651
 H         1.295184        -0.192163        -1.156634
 H        -0.262655         0.278023        -1.465821
 H         1.855623         0.822045        -3.455405
 H         1.624062         1.943483         1.866777
