19
Iteration:  4090
 C         3.261085         3.402495        -3.017969
 C         2.062752         2.614308        -2.239337
 C         1.930497         2.885935        -0.699352
 C         0.800187         1.814922        -0.256584
 C         0.810703         0.688222        -1.307096
 C         1.398508         1.326965        -2.553892
 O         0.882526         2.564016        -3.016826
 C         1.096053         1.245837         1.065405
 O         1.603331         0.140101         1.232256
 H         3.218466         4.429645        -2.743239
 H         4.138974         2.929871        -2.703725
 H         2.980844         3.071979        -4.055580
 H         2.918746         2.627049        -0.350253
 H         1.559818         3.850909        -0.569002
 H        -0.179333         2.273855        -0.039141
 H         1.379008        -0.297427        -1.078951
 H        -0.226040         0.215395        -1.493704
 H         1.791431         0.580385        -3.235522
 H         0.909164         1.892304         1.933732
