19
Iteration:  1573
 C         3.439513         2.550695        -2.982256
 C         2.113269         2.427086        -2.257417
 C         2.000026         2.773481        -0.799430
 C         0.975785         1.816475        -0.134031
 C        -0.022755         1.437646        -1.412512
 C         0.965705         1.589434        -2.570567
 O         1.009213         2.958412        -2.990460
 C         1.700338         0.562499         0.532441
 O         1.604503         0.463879         1.776100
 H         3.969294         3.434265        -2.432796
 H         4.245225         1.802169        -2.968715
 H         3.148222         2.725021        -3.984013
 H         2.947311         2.680911        -0.242039
 H         1.644526         3.730590        -0.603562
 H         0.491902         2.426403         0.627716
 H        -0.225268         0.311409        -1.448331
 H        -0.992832         2.037176        -1.460199
 H         1.071552         0.954386        -3.477638
 H         2.400665        -0.140716        -0.069162
