19
Iteration:  4467
 C         3.089537         3.258916        -3.109412
 C         2.014533         2.744911        -2.247701
 C         1.981006         2.910522        -0.758557
 C         1.105303         1.707562        -0.304123
 C         1.189267         0.592743        -1.451849
 C         1.486952         1.412534        -2.626022
 O         0.695818         2.663762        -2.815201
 C         1.333203         1.246103         1.106984
 O         1.036819         0.102166         1.420790
 H         2.986685         4.437924        -3.167691
 H         4.172304         3.038099        -2.763817
 H         2.977288         2.808206        -4.175680
 H         3.023903         2.883562        -0.429731
 H         1.429258         3.733039        -0.427017
 H         0.040723         1.977600        -0.281827
 H         2.009881        -0.139119        -1.393598
 H         0.274523         0.016688        -1.477730
 H         1.711646         1.080916        -3.668265
 H         1.811270         2.011785         1.807090
