19
Iteration:  4446charge 0 multiplicity 1
 C         3.143264         3.256272        -3.089203
 C         2.041179         2.740172        -2.281078
 C         1.905603         3.012839        -0.751061
 C         1.104743         1.757815        -0.279748
 C         1.135990         0.703881        -1.387204
 C         1.450519         1.433518        -2.640162
 O         0.645897         2.620162        -2.920262
 C         1.453068         1.103630         1.044471
 O         1.021966         0.050427         1.476126
 H         3.210780         4.250318        -3.481070
 H         4.024651         3.054722        -2.502384
 H         3.423612         2.550700        -3.937786
 H         2.912331         2.979160        -0.298297
 H         1.308792         3.870969        -0.491332
 H         0.064578         2.046240        -0.050449
 H         2.020014         0.013463        -1.186695
 H         0.201682         0.146558        -1.432417
 H         1.854727         1.087575        -3.585393
 H         2.032613         1.755627         1.697065
