19
Iteration:   184charge 0 multiplicity 1
 C         3.362281         2.307437        -3.210591
 C         2.219031         2.260659        -2.340874
 C         2.430671         2.015585        -0.881760
 C         1.015818         2.013104        -0.231137
 C         0.177799         1.453714        -1.349225
 C         0.819853         1.913731        -2.612372
 O         1.003922         3.307804        -2.448366
 C         1.090682         1.193310         0.977323
 O         1.703295         0.160817         1.212757
 H         4.087876         3.083138        -2.858173
 H         3.902227         1.389319        -3.062258
 H         3.178749         2.560685        -4.239445
 H         2.857382         0.960857        -0.698115
 H         2.926166         2.826841        -0.324802
 H         0.708197         3.021270         0.063497
 H         0.259081         0.265652        -1.233403
 H        -0.927543         1.645937        -1.348307
 H         0.354015         1.622348        -3.545757
 H         0.534525         1.847492         1.821611
