19
Iteration:  1700
 C         3.379689         2.682220        -3.073276
 C         2.132967         2.431867        -2.370669
 C         2.291226         2.750039        -0.810821
 C         1.099483         1.866598        -0.085705
 C         0.192665         1.299434        -1.329265
 C         1.004410         1.529148        -2.551194
 O         0.804074         2.964265        -2.997059
 C         1.738486         0.749879         0.638416
 O         1.243073         0.313696         1.738206
 H         3.649460         3.653035        -2.897698
 H         4.127881         1.989135        -2.648634
 H         3.281117         2.778173        -4.174732
 H         3.184681         2.262253        -0.419277
 H         2.262215         3.870884        -0.607822
 H         0.549882         2.517646         0.657523
 H        -0.103814         0.357145        -1.083713
 H        -0.726488         1.769531        -1.522514
 H         0.827577         0.885341        -3.394394
 H         2.692861         0.359800         0.247152
