19
Iteration:  4991
 C         3.418533         2.966805        -2.259233
 C         2.004793         2.529922        -2.115959
 C         1.269544         3.148513        -0.896743
 C         0.633571         1.903339        -0.189731
 C         0.327913         0.905267        -1.307320
 C         1.351469         1.283161        -2.407898
 O         0.985141         2.453213        -3.185516
 C         1.624333         1.294097         0.862255
 O         2.113998         0.176257         0.766997
 H         3.761394         4.011446        -2.132465
 H         4.089102         2.350341        -1.597039
 H         3.807067         2.821372        -3.351739
 H         1.896557         3.743671        -0.269067
 H         0.457468         3.609989        -1.533149
 H        -0.209158         2.244399         0.420411
 H         0.351800        -0.210506        -1.088036
 H        -0.615315         1.073148        -1.810986
 H         1.903911         0.430323        -2.800981
 H         2.007709         2.060034         1.618519
