19
Iteration:  2990charge 0 multiplicity 1
 C         3.450010         2.795175        -2.877157
 C         2.103181         2.460312        -2.184639
 C         1.758956         2.831060        -0.724194
 C         0.718180         1.787613        -0.156733
 C         0.152266         1.110312        -1.425579
 C         1.125333         1.476796        -2.580759
 O         1.042076         2.786651        -3.088337
 C         1.699289         0.770442         0.517230
 O         1.720220         0.548711         1.723111
 H         3.478228         3.898300        -2.801596
 H         4.400435         2.308917        -2.576013
 H         3.292154         2.448460        -3.903774
 H         2.653286         3.059195         0.066314
 H         1.410508         3.851628        -0.801649
 H         0.096865         2.218544         0.666774
 H        -0.082993         0.027508        -1.342097
 H        -0.696429         1.721050        -1.689166
 H         1.269493         0.692343        -3.411318
 H         2.482759         0.229041        -0.158649
