19
Iteration:  3592charge 0 multiplicity 1
 C         3.350683         3.070940        -2.745790
 C         2.112410         2.503480        -2.194726
 C         1.738832         2.827150        -0.693951
 C         0.795572         1.632288        -0.304838
 C         0.264391         0.924494        -1.629583
 C         1.229323         1.341706        -2.645858
 O         0.988642         2.719302        -2.980277
 C         1.358616         0.579876         0.686055
 O         1.965605         0.962718         1.675831
 H         3.461744         4.131181        -2.434452
 H         4.193241         2.392965        -2.498834
 H         3.330199         3.095759        -3.765669
 H         2.712398         2.749927        -0.110086
 H         1.104959         3.740323        -0.655099
 H        -0.015926         2.116395         0.184563
 H         0.230042        -0.214193        -1.490119
 H        -0.761872         1.084322        -1.962197
 H         1.553181         0.641578        -3.382850
 H         1.324872        -0.594096         0.352964
