19
Iteration:  1684charge 0 multiplicity 1
 C         3.396149         2.624666        -3.090160
 C         2.097058         2.472365        -2.298727
 C         2.090811         2.742890        -0.845850
 C         1.114730         1.842888        -0.170020
 C         0.220855         1.336203        -1.278873
 C         0.945070         1.554897        -2.610735
 O         0.922004         2.965760        -2.888000
 C         1.798201         0.734621         0.625504
 O         1.260644         0.343167         1.710925
 H         3.760859         3.783964        -3.156668
 H         4.162328         1.947903        -2.656000
 H         3.315611         2.190330        -4.113094
 H         3.135111         2.665247        -0.458873
 H         1.777775         3.764375        -0.575789
 H         0.497377         2.374711         0.538093
 H        -0.066027         0.187919        -1.191954
 H        -0.723195         1.989400        -1.270839
 H         1.098484         0.820418        -3.453654
 H         2.734046         0.234937         0.225475
