19
Iteration:  3972charge 0 multiplicity 1
 C         3.309740         3.163246        -2.961152
 C         1.965529         2.714451        -2.255944
 C         1.714894         3.068163        -0.796116
 C         0.860278         1.739615        -0.284590
 C         0.927056         0.670420        -1.370429
 C         1.448857         1.399916        -2.555336
 O         0.786791         2.608136        -3.003247
 C         1.338320         1.284575         1.113073
 O         1.499553         0.050716         1.273697
 H         3.488185         4.257473        -2.809571
 H         4.137340         2.605197        -2.334039
 H         3.342893         2.768121        -3.980527
 H         2.576267         3.173459        -0.093668
 H         0.926157         3.896346        -0.734321
 H        -0.122205         2.192204        -0.197258
 H         1.438273        -0.235614        -1.029566
 H        -0.062955         0.270014        -1.489964
 H         1.843457         0.680983        -3.282591
 H         1.649142         1.949065         1.954288
