19
Iteration:  4785charge 0 multiplicity 1
 C         3.391613         2.843172        -2.401099
 C         1.977983         2.628078        -2.088404
 C         1.378027         3.034111        -0.797626
 C         0.617931         1.865289        -0.274192
 C         0.432684         0.833167        -1.393532
 C         1.378144         1.363667        -2.465401
 O         0.946726         2.537240        -3.184089
 C         1.572604         1.335781         0.823660
 O         2.057483         0.220514         0.927452
 H         3.503544         3.931699        -2.484648
 H         3.897670         2.630858        -1.510624
 H         3.674659         2.343290        -3.379859
 H         2.142713         3.343390         0.055694
 H         0.756873         4.001264        -0.735032
 H        -0.303313         2.166417         0.304553
 H         0.929764        -0.212395        -1.055352
 H        -0.642859         0.721565        -1.598384
 H         1.818665         0.495280        -2.934466
 H         1.763682         2.199906         1.583893
