19
Iteration:   542
 C         3.158820         2.610374        -3.618136
 C         2.170654         2.300195        -2.515686
 C         2.701553         1.948997        -1.120027
 C         1.433227         1.695074        -0.310422
 C         0.429109         1.091978        -1.267579
 C         0.678613         2.003547        -2.509088
 O         1.111795         3.317809        -2.246668
 C         1.546502         0.855121         0.929953
 O         0.689116         0.725719         1.777585
 H         3.909382         3.346017        -3.282490
 H         3.623157         1.721946        -3.890313
 H         2.607678         3.009073        -4.523311
 H         3.403127         1.068585        -1.314404
 H         3.166165         2.823793        -0.618471
 H         1.048908         2.708394        -0.174744
 H         0.564343        -0.083057        -1.288285
 H        -0.607094         1.342042        -0.895633
 H         0.121519         1.724167        -3.522603
 H         2.485625         0.209197         1.001957
