19
Iteration:   930charge 0 multiplicity 1
 C         3.414250         2.134619        -2.882584
 C         2.128231         2.495817        -2.219737
 C         2.185548         2.873866        -0.815595
 C         1.060232         1.922984        -0.043353
 C        -0.029787         1.686929        -1.320903
 C         0.812386         1.724863        -2.528876
 O         0.973944         3.022620        -3.088514
 C         1.618382         0.615641         0.476645
 O         1.597932         0.205731         1.614633
 H         4.138852         2.917576        -2.664928
 H         3.879548         1.307094        -2.446048
 H         3.215431         1.925128        -3.956282
 H         3.156818         2.597830        -0.418132
 H         2.219672         3.929686        -0.410902
 H         0.613940         2.545926         0.778788
 H        -0.581068         0.783229        -1.361743
 H        -0.722605         2.509714        -1.387441
 H         0.872603         0.940595        -3.328020
 H         2.364667         0.039424        -0.192693
