19
Iteration:   850charge 0 multiplicity 1
 C         3.474537         2.170106        -2.950010
 C         2.099694         2.502210        -2.225510
 C         2.234590         2.593563        -0.747022
 C         0.862007         1.892680        -0.088296
 C        -0.027626         1.609052        -1.301019
 C         0.856990         1.703895        -2.541023
 O         1.040294         3.112990        -2.946407
 C         1.488742         0.708092         0.432968
 O         1.740356         0.418924         1.576118
 H         3.981996         2.998083        -3.445116
 H         4.060540         1.575930        -2.410398
 H         3.205307         1.774577        -4.002425
 H         3.013494         1.907985        -0.311162
 H         2.424362         3.581784        -0.367314
 H         0.233212         2.323759         0.733696
 H        -0.307704         0.580459        -1.254743
 H        -0.880824         2.284665        -1.285661
 H         0.859881         0.933807        -3.270350
 H         1.640529        -0.004999        -0.399379
