19
Iteration:   266charge 0 multiplicity 1
 C         3.270308         2.046481        -3.240996
 C         2.203434         2.426443        -2.267370
 C         2.330149         2.357963        -0.817657
 C         1.094638         1.780150        -0.236202
 C        -0.047889         1.644854        -1.336768
 C         0.791476         1.970568        -2.580019
 O         1.214846         3.390604        -2.661020
 C         1.037001         0.666843         0.754999
 O         1.916749         0.347050         1.523387
 H         4.193686         2.680495        -3.165801
 H         3.571529         0.957190        -3.035617
 H         2.892066         2.104412        -4.282856
 H         3.093016         1.769440        -0.395512
 H         2.598815         3.288868        -0.369138
 H         0.666495         2.600815         0.375296
 H        -0.482857         0.695740        -1.364127
 H        -0.835513         2.380256        -1.158211
 H         0.614625         1.443520        -3.616486
 H         0.040063         0.181030         0.930273
