19
Iteration:   730charge 0 multiplicity 1
 C         3.457524         2.397510        -3.182776
 C         2.164112         2.337069        -2.404580
 C         2.367918         2.298837        -0.815374
 C         1.015299         1.852784        -0.219768
 C         0.105079         1.345043        -1.429213
 C         0.761573         1.866788        -2.686970
 O         0.998256         3.193788        -2.626238
 C         1.393950         0.653350         0.636056
 O         1.538886         0.639024         1.865352
 H         4.055298         3.297397        -2.972493
 H         3.973950         1.477266        -3.116705
 H         3.155304         2.715981        -4.320549
 H         3.112056         1.527589        -0.585778
 H         2.716670         3.283820        -0.559890
 H         0.536764         2.669575         0.317740
 H        -0.035304         0.310535        -1.532005
 H        -0.833700         1.836525        -1.234899
 H         0.438496         1.379452        -3.569719
 H         1.681498        -0.215709         0.023460
