19
Iteration:  2995charge 0 multiplicity 1
 C         3.425631         2.768154        -2.869397
 C         2.139604         2.474336        -2.187072
 C         1.746240         2.869671        -0.716439
 C         0.729977         1.801322        -0.196179
 C         0.172552         1.150504        -1.409380
 C         1.129819         1.403391        -2.595770
 O         1.025651         2.828753        -3.100906
 C         1.683000         0.724994         0.537833
 O         1.725642         0.526655         1.756118
 H         3.595410         3.890169        -2.861720
 H         4.418883         2.376284        -2.589079
 H         3.346077         2.631300        -3.972421
 H         2.582890         2.927713        -0.145048
 H         1.271495         3.872622        -0.909176
 H         0.063678         2.192741         0.611291
 H         0.129634         0.070434        -1.260639
 H        -0.809609         1.667548        -1.620909
 H         1.232663         0.664674        -3.322733
 H         2.414180         0.312070        -0.150672
