19
Iteration:  1035
 C         3.395105         2.356089        -3.130100
 C         2.125687         2.459745        -2.314553
 C         2.308732         2.848087        -0.772600
 C         1.156203         2.012577        -0.030597
 C         0.117217         1.661016        -1.174293
 C         0.870263         1.636979        -2.488772
 O         0.976507         2.927975        -3.045992
 C         1.672304         0.659505         0.553331
 O         1.244005         0.150867         1.630977
 H         3.811842         3.379221        -3.206725
 H         4.024964         1.697981        -2.553735
 H         3.276789         1.993822        -4.191811
 H         3.215138         2.199778        -0.789962
 H         2.410720         3.870220        -0.476294
 H         0.389804         2.440629         0.651188
 H        -0.257160         0.632078        -0.844067
 H        -0.861284         2.253127        -1.134824
 H         0.764918         0.972984        -3.316893
 H         2.522501         0.293280        -0.182445
