19
Iteration:  2400
 C         3.394514         2.743923        -3.164476
 C         2.079185         2.537252        -2.341232
 C         2.189918         2.761258        -0.809894
 C         1.143844         1.777656        -0.142687
 C         0.364021         1.178408        -1.361342
 C         0.969018         1.598768        -2.671991
 O         0.855682         2.924190        -2.915685
 C         1.637487         0.611667         0.722867
 O         1.235027         0.472512         1.804110
 H         3.503908         3.768337        -3.184970
 H         4.237592         2.466713        -2.530584
 H         3.429042         2.335142        -4.160241
 H         3.201050         2.804135        -0.354434
 H         1.810865         3.810289        -0.461020
 H         0.457586         2.283874         0.488291
 H         0.390630         0.057260        -1.392997
 H        -0.654538         1.204200        -1.131126
 H         0.869411         0.977109        -3.554007
 H         2.534526         0.045704         0.318432
