19
Iteration:  3714
 C         3.364183         3.034640        -2.764635
 C         2.053694         2.606673        -2.074710
 C         1.778032         2.811384        -0.661331
 C         0.660006         1.744291        -0.323587
 C         0.694796         0.690589        -1.469110
 C         1.328732         1.392304        -2.614553
 O         0.828674         2.713726        -2.951220
 C         0.952337         0.918151         0.912284
 O         2.090051         0.721607         1.164139
 H         3.758925         4.104896        -2.617077
 H         4.205070         2.353635        -2.440458
 H         3.282149         2.705428        -3.822153
 H         2.767056         2.539045         0.011992
 H         1.497408         3.838448        -0.413974
 H        -0.301410         2.237625        -0.201800
 H         1.292375        -0.271653        -1.277670
 H        -0.313597         0.192693        -1.714896
 H         1.716856         0.906251        -3.498589
 H         0.006925         0.663076         1.522033
