19
Iteration:  1689
 C         3.373014         2.644527        -3.102335
 C         2.093389         2.480864        -2.325454
 C         2.148519         2.684452        -0.815116
 C         1.078484         1.893791        -0.162431
 C         0.208022         1.325427        -1.281476
 C         1.001105         1.560729        -2.597155
 O         0.879416         2.959087        -2.919586
 C         1.810318         0.703334         0.680652
 O         1.263428         0.354440         1.678579
 H         3.691946         3.598990        -2.915194
 H         4.149256         2.044864        -2.605162
 H         3.414735         2.310758        -4.153685
 H         3.145262         2.628530        -0.400275
 H         1.942606         3.797594        -0.799654
 H         0.415686         2.357970         0.613865
 H        -0.070481         0.343503        -1.183026
 H        -0.632434         1.959822        -1.330513
 H         0.968491         0.861758        -3.406695
 H         2.703599         0.165974         0.300797
