19
Iteration:  1694charge 0 multiplicity 1
 C         3.357581         2.636997        -3.100922
 C         2.107734         2.468631        -2.351843
 C         2.203466         2.695904        -0.804097
 C         1.066370         1.898664        -0.128224
 C         0.213794         1.321901        -1.306812
 C         1.027971         1.560934        -2.568682
 O         0.841631         2.961306        -2.953807
 C         1.790956         0.703578         0.693673
 O         1.261753         0.350221         1.678305
 H         3.726055         3.736984        -2.803152
 H         4.136391         2.082239        -2.547605
 H         3.395090         2.523188        -4.187830
 H         3.226296         2.500601        -0.325945
 H         2.090093         3.764626        -0.862932
 H         0.467757         2.377042         0.624813
 H        -0.169578         0.213660        -1.095259
 H        -0.756622         1.960663        -1.425839
 H         0.854223         0.847326        -3.444009
 H         2.729704         0.172841         0.301955
