19
Iteration:   161charge 0 multiplicity 1
 C         3.302310         2.428177        -3.346043
 C         2.198027         2.399265        -2.334022
 C         2.481433         2.074962        -0.877178
 C         1.079783         1.961902        -0.131870
 C         0.156256         1.298945        -1.345308
 C         0.778940         1.861312        -2.628671
 O         1.179922         3.327818        -2.596375
 C         1.164228         1.226154         1.216358
 O         1.486531         0.069145         1.262181
 H         3.934937         3.382255        -3.302781
 H         4.026401         1.619250        -3.253252
 H         2.859360         2.543342        -4.282349
 H         2.897872         0.980220        -0.985639
 H         3.085316         2.798443        -0.268368
 H         0.658882         2.977363        -0.103883
 H         0.189052         0.089738        -1.376903
 H        -0.936720         1.516518        -1.134075
 H         0.558748         1.441682        -3.677215
 H         0.719567         1.901898         2.118310
