19
Iteration:   445
 C         3.216868         2.209016        -3.460177
 C         2.135801         2.312525        -2.380103
 C         2.677175         2.304097        -0.955377
 C         1.320669         1.901648        -0.199119
 C         0.107799         1.581633        -1.113903
 C         0.704441         1.917326        -2.467129
 O         1.090569         3.331178        -2.581438
 C         1.653260         0.708162         0.680331
 O         0.960504         0.360271         1.628769
 H         3.865940         3.096327        -3.192014
 H         3.809304         1.327382        -3.283636
 H         2.919245         2.132083        -4.583068
 H         3.386769         1.586214        -0.721014
 H         2.836295         3.345398        -0.842039
 H         1.093026         2.545503         0.635784
 H        -0.146040         0.557496        -1.147292
 H        -0.779290         2.159239        -0.857461
 H         0.350452         1.490925        -3.453451
 H         2.620404         0.104810         0.469196
