19
Iteration:  4473charge 0 multiplicity 1
 C         3.078822         3.344798        -3.130727
 C         2.064333         2.704347        -2.274277
 C         2.004362         2.889709        -0.761808
 C         1.081868         1.698470        -0.303460
 C         1.184292         0.531520        -1.417769
 C         1.477721         1.406892        -2.640926
 O         0.684563         2.675646        -2.808096
 C         1.317164         1.259838         1.094097
 O         1.044118         0.109037         1.433066
 H         3.130447         4.416674        -3.253228
 H         4.065323         2.904747        -2.865878
 H         3.020111         3.002950        -4.100948
 H         3.030131         2.759584        -0.349397
 H         1.471227         3.836694        -0.357206
 H         0.025859         2.066026        -0.265483
 H         2.060733        -0.115971        -1.235721
 H         0.208946         0.007870        -1.527490
 H         1.725934         1.147732        -3.688190
 H         1.657181         1.974143         1.884219
