19
Iteration:  4418
 C         3.180027         3.424620        -3.077164
 C         2.092951         2.646790        -2.353236
 C         1.829399         2.936577        -0.841157
 C         1.007856         1.763325        -0.234774
 C         0.954629         0.733410        -1.301822
 C         1.402983         1.357513        -2.584832
 O         0.787973         2.635925        -2.986171
 C         1.536605         1.091879         1.045242
 O         1.067483         0.049852         1.490413
 H         3.102842         4.538332        -3.313018
 H         4.114435         3.326012        -2.398328
 H         3.533584         2.901812        -3.965919
 H         2.800201         2.841181        -0.324916
 H         1.358666         3.922916        -0.514580
 H        -0.020916         2.035162         0.086536
 H         1.635747        -0.096882        -1.104755
 H        -0.010109         0.183674        -1.359551
 H         1.817826         0.901476        -3.468481
 H         2.483481         1.604188         1.481813
