19
Iteration:  1243
 C         3.212878         2.985757        -3.348790
 C         2.204612         2.391387        -2.428099
 C         2.552923         1.937559        -1.019974
 C         1.280849         1.556023        -0.365481
 C         0.426155         0.897364        -1.531460
 C         0.813993         1.839294        -2.688088
 O         1.014060         3.221238        -2.380849
 C         1.193784         0.629161         0.844499
 O         1.166307         1.057174         2.034996
 H         3.658491         3.961978        -3.135700
 H         4.061948         2.301473        -3.528336
 H         2.938830         3.057710        -4.474233
 H         3.240632         1.018977        -1.123348
 H         3.104051         2.761292        -0.584261
 H         0.766386         2.525737        -0.258924
 H         0.664507        -0.152398        -1.648846
 H        -0.642947         0.790467        -1.172155
 H         0.622476         1.519064        -3.698000
 H         1.048259        -0.440204         0.665702
