19
Iteration:  3192
 C         3.139695         3.040055        -3.330983
 C         2.232401         2.544389        -2.339148
 C         2.361826         2.562233        -0.832965
 C         1.110852         1.646465        -0.270933
 C         0.624164         0.787513        -1.489847
 C         1.082172         1.559346        -2.680883
 O         0.810842         2.927887        -2.745124
 C         1.571258         0.994046         0.959991
 O         0.974179         0.501224         1.881110
 H         3.351068         4.083754        -3.178992
 H         4.136235         2.780457        -3.234763
 H         2.853020         3.078704        -4.399457
 H         3.274239         1.987768        -0.442876
 H         2.316462         3.687817        -0.442156
 H         0.215488         2.335513         0.110531
 H         1.069322        -0.174546        -1.410950
 H        -0.479127         0.483272        -1.467565
 H         1.108965         0.988950        -3.663331
 H         2.683008         0.878948         0.811330
