19
Iteration:  4927charge 0 multiplicity 1
 C         3.495282         2.835001        -2.274499
 C         2.039239         2.468526        -1.998084
 C         1.231840         3.131801        -0.800224
 C         0.531606         1.830217        -0.190752
 C         0.257945         0.926756        -1.435021
 C         1.238529         1.276576        -2.461294
 O         1.059472         2.491182        -3.135002
 C         1.583080         1.328055         0.778851
 O         2.297024         0.353481         0.727305
 H         3.700823         3.849488        -2.654116
 H         4.097747         2.671650        -1.386599
 H         3.777430         2.007189        -3.060986
 H         1.806377         3.538303         0.015762
 H         0.343495         3.983171        -0.928247
 H        -0.449516         1.970945         0.288955
 H         0.394414        -0.244347        -1.075777
 H        -0.797834         1.156969        -1.746943
 H         1.748312         0.530460        -3.059466
 H         1.754564         2.045000         1.682234
