19
Iteration:  1718charge 0 multiplicity 1
 C         3.386864         2.758918        -3.153455
 C         2.092323         2.535697        -2.306482
 C         2.263852         2.631536        -0.829036
 C         1.114554         1.986628        -0.171183
 C         0.249135         1.273751        -1.236285
 C         0.941122         1.569375        -2.605838
 O         0.895936         2.874571        -2.981595
 C         1.639865         0.788987         0.691062
 O         1.236515         0.258249         1.772733
 H         3.952039         3.718485        -2.786456
 H         4.170432         1.986068        -3.025165
 H         3.119364         2.928913        -4.262787
 H         3.242845         2.188573        -0.669838
 H         2.354564         3.705066        -0.593727
 H         0.449445         2.669780         0.362882
 H         0.154401         0.105635        -1.126297
 H        -0.771872         1.683592        -1.054164
 H         1.080186         0.799155        -3.317356
 H         2.441754         0.152843         0.177306
