19
Iteration:  4760charge 0 multiplicity 1
 C         3.467186         2.871888        -2.496340
 C         2.015329         2.614168        -2.165147
 C         1.366327         3.161279        -0.839023
 C         0.685806         1.854036        -0.212531
 C         0.499905         0.725542        -1.421615
 C         1.409720         1.323992        -2.548985
 O         0.877130         2.616659        -3.080299
 C         1.550874         1.322137         0.938330
 O         1.954724         0.157874         0.999198
 H         3.600726         3.934383        -2.681675
 H         3.961806         2.691396        -1.533856
 H         3.724167         2.380621        -3.329902
 H         1.891920         3.684533        -0.096869
 H         0.517201         3.889223        -1.066010
 H        -0.232189         1.966476         0.328300
 H         0.842486        -0.303173        -1.007683
 H        -0.600811         0.726241        -1.717956
 H         1.741125         0.566660        -3.283931
 H         1.897545         2.178729         1.621144
