19
Iteration:  3440charge 0 multiplicity 1
 C         3.333398         3.144510        -3.001699
 C         2.076062         2.573610        -2.315593
 C         2.026437         2.679309        -0.833229
 C         0.953812         1.629722        -0.333744
 C         0.465052         0.841313        -1.548782
 C         1.225768         1.436162        -2.685923
 O         0.806214         2.772840        -2.966039
 C         1.474632         0.685970         0.800024
 O         1.459886         0.786058         2.014189
 H         3.638379         4.152840        -2.567905
 H         4.221412         2.450064        -2.747435
 H         3.409067         3.181931        -4.150727
 H         3.190778         2.649032        -0.562787
 H         1.870865         3.745499        -0.485146
 H         0.169776         2.181370         0.115864
 H         0.729382        -0.208356        -1.351357
 H        -0.650022         1.051829        -1.605736
 H         1.215543         0.806225        -3.623193
 H         1.856049        -0.230555         0.270087
