19
Iteration:  1226
 C         3.263782         2.901299        -3.431312
 C         2.173861         2.397684        -2.455859
 C         2.636569         1.975965        -0.983032
 C         1.199807         1.696608        -0.310013
 C         0.456405         1.027325        -1.472302
 C         0.866135         1.751627        -2.712279
 O         0.944291         3.198314        -2.463284
 C         1.185217         0.739299         0.808951
 O         1.166234         0.853474         2.098753
 H         3.525119         3.824962        -2.874800
 H         4.141085         2.275122        -3.512553
 H         2.724798         3.169133        -4.302566
 H         3.239237         1.087210        -1.024741
 H         3.156543         2.718237        -0.350064
 H         0.713819         2.641977        -0.038935
 H         0.919292        -0.022028        -1.544932
 H        -0.630626         0.955578        -1.455263
 H         0.378198         1.592485        -3.702625
 H         1.252890        -0.319180         0.364772
