19
Iteration:  4599
 C         3.213181         3.255852        -3.015165
 C         1.984137         2.703618        -2.248501
 C         1.953157         2.817608        -0.744143
 C         1.013403         1.666704        -0.388846
 C         1.070269         0.584373        -1.500007
 C         1.418384         1.425216        -2.706348
 O         0.685659         2.747356        -2.885418
 C         1.088824         1.214892         1.051898
 O         1.420349         0.170548         1.566732
 H         3.253811         4.406656        -3.064467
 H         4.154378         3.112679        -2.447304
 H         3.292086         2.931327        -4.112832
 H         2.997651         2.797619        -0.475254
 H         1.626013         3.589798        -0.165466
 H        -0.043509         1.989753        -0.335811
 H         1.870050        -0.036307        -1.253991
 H         0.200385         0.002672        -1.527079
 H         1.644446         0.962799        -3.635653
 H         0.978411         2.122452         1.749293
