19
Iteration:  4612charge 0 multiplicity 1
 C         3.251338         3.240829        -2.990311
 C         1.992479         2.767513        -2.343783
 C         1.885443         2.843649        -0.745762
 C         0.934270         1.665856        -0.309368
 C         1.061941         0.684992        -1.475377
 C         1.476406         1.450005        -2.698393
 O         0.650704         2.680102        -2.898230
 C         1.186026         1.230339         1.144135
 O         1.443673         0.102801         1.501809
 H         3.277138         4.344543        -3.195414
 H         3.992739         2.844487        -2.295998
 H         3.502226         2.552914        -3.967545
 H         2.771462         2.610887        -0.228414
 H         1.541199         3.826541        -0.694680
 H        -0.022075         2.152865        -0.404939
 H         1.771365        -0.119635        -1.383791
 H         0.094045         0.231686        -1.667179
 H         1.767034         0.976420        -3.626486
 H         0.908546         2.040682         1.853878
