19
Iteration:  4253
 C         3.106955         3.427898        -3.134499
 C         2.111445         2.657656        -2.307067
 C         2.109426         2.741595        -0.700052
 C         0.930191         1.835409        -0.276327
 C         0.911121         0.602871        -1.362458
 C         1.409037         1.355748        -2.629582
 O         0.845406         2.644091        -2.898135
 C         0.998509         1.238193         1.131741
 O         1.441650         0.141798         1.380950
 H         2.966392         4.533754        -3.110756
 H         4.134506         3.348650        -2.806223
 H         3.065852         3.037823        -4.234921
 H         3.047304         2.295156        -0.397413
 H         1.893761         3.735662        -0.416563
 H        -0.102391         2.192355        -0.503392
 H         1.573718        -0.178011        -1.141565
 H        -0.011131         0.009312        -1.254135
 H         1.787422         0.751066        -3.472638
 H         0.706682         1.971972         1.968355
