19
Iteration:  2033
 C         3.354652         2.840813        -3.118002
 C         2.080630         2.462062        -2.316524
 C         2.251742         2.599395        -0.848958
 C         1.055519         1.735913        -0.247671
 C         0.324934         1.074476        -1.413354
 C         1.025903         1.593418        -2.687814
 O         0.832275         3.011474        -2.844725
 C         1.614240         0.676443         0.725260
 O         1.298388         0.594438         1.901362
 H         3.657707         3.876392        -2.908420
 H         4.180269         2.245761        -2.810227
 H         3.253971         2.612995        -4.185644
 H         3.100711         1.991061        -0.729631
 H         2.439563         3.567178        -0.469690
 H         0.277460         2.255674         0.241641
 H         0.251000         0.000221        -1.377379
 H        -0.667459         1.606600        -1.488745
 H         1.132110         1.025132        -3.612630
 H         2.359024        -0.051186         0.356084
