19
Iteration:  2523charge 0 multiplicity 1
 C         3.112244         3.066662        -3.409091
 C         2.105109         2.557894        -2.405195
 C         2.553681         2.322857        -0.918530
 C         1.357751         1.699559        -0.270070
 C         0.734304         0.782029        -1.411815
 C         1.026521         1.574546        -2.629197
 O         0.753862         2.990808        -2.427980
 C         1.582177         0.799813         0.853644
 O         0.696639         0.781092         1.739323
 H         3.752812         3.910515        -3.128251
 H         3.864458         2.279547        -3.562490
 H         2.574813         3.240676        -4.385493
 H         3.469201         1.633480        -0.893390
 H         2.759159         3.402492        -0.593625
 H         0.724191         2.508249         0.173135
 H         1.374200        -0.131770        -1.436741
 H        -0.327669         0.534748        -1.179628
 H         0.953874         1.029808        -3.599935
 H         2.529903         0.222212         0.953259
