19
Iteration:  2783
 C         3.339040         2.743764        -2.963247
 C         2.140431         2.540656        -2.215865
 C         1.914144         2.786062        -0.643691
 C         0.988674         1.636315        -0.291055
 C         0.265517         1.041163        -1.583133
 C         1.164269         1.548305        -2.658503
 O         0.861476         2.957176        -3.051042
 C         1.635943         0.594358         0.683011
 O         1.561861         0.728783         1.887254
 H         3.430716         3.813036        -3.225214
 H         4.254449         2.429626        -2.401437
 H         3.136596         2.095732        -3.889881
 H         2.904831         2.774883        -0.176182
 H         1.435466         3.724365        -0.527439
 H         0.143488         2.037066         0.435950
 H         0.122708        -0.074093        -1.548083
 H        -0.663326         1.649420        -1.650345
 H         1.474900         0.848933        -3.574351
 H         2.192264        -0.344702         0.275937
