19
Iteration:  2614charge 0 multiplicity 1
 C         3.141236         3.117522        -3.288993
 C         2.133917         2.497612        -2.357098
 C         2.623148         2.264485        -1.023912
 C         1.293774         1.646613        -0.377933
 C         0.694574         0.810520        -1.490546
 C         1.021107         1.603436        -2.708585
 O         0.666013         2.922401        -2.423020
 C         1.592936         0.829795         0.933660
 O         0.758658         0.891890         1.795680
 H         3.298401         4.262146        -3.039238
 H         4.178802         2.678280        -3.098123
 H         2.716016         2.839107        -4.237666
 H         3.472566         1.395869        -0.832382
 H         3.053121         3.035666        -0.385373
 H         0.576794         2.413892         0.021064
 H         1.443567        -0.036750        -1.554097
 H        -0.375661         0.372997        -1.443158
 H         0.899770         1.227889        -3.711189
 H         2.477119         0.165665         1.121198
