19
Iteration:  2828
 C         3.478855         2.778501        -2.820241
 C         2.114779         2.438000        -2.178194
 C         1.870102         2.807742        -0.775392
 C         0.803004         1.819238        -0.236828
 C         0.228914         1.013128        -1.464049
 C         1.053656         1.441727        -2.670628
 O         0.898196         2.892700        -3.047762
 C         1.528081         0.739644         0.597123
 O         1.773827         0.611531         1.778039
 H         3.627186         3.826262        -2.462479
 H         4.459466         2.352058        -2.431089
 H         3.473210         2.684036        -3.935500
 H         2.802857         2.757285        -0.225997
 H         1.480686         3.865921        -0.721779
 H         0.054654         2.470525         0.441933
 H         0.478992        -0.052165        -1.266446
 H        -0.851579         1.311884        -1.699192
 H         1.370889         0.830387        -3.631215
 H         2.004656         0.036793        -0.148578
