19
Iteration:  3531
 C         3.392159         2.792850        -2.696703
 C         2.023124         2.541181        -2.175270
 C         1.704614         2.825666        -0.734558
 C         0.885263         1.548944        -0.322700
 C         0.431428         0.777217        -1.581274
 C         1.152541         1.514169        -2.769709
 O         0.846212         2.928933        -3.013562
 C         1.553451         0.636776         0.633818
 O         1.802385         0.999996         1.788356
 H         3.638525         3.889722        -2.699794
 H         4.118579         2.324192        -2.025615
 H         3.538703         2.272463        -3.771465
 H         2.580231         2.954711        -0.076925
 H         1.160447         3.696701        -0.474177
 H        -0.062321         1.907372         0.260383
 H         0.820269        -0.284273        -1.605221
 H        -0.673705         0.788758        -1.792287
 H         1.573792         1.043872        -3.666461
 H         1.801551        -0.471462         0.234572
