19
Iteration:  4676charge 0 multiplicity 1
 C         3.243998         3.353792        -2.860743
 C         2.116830         2.610404        -2.199712
 C         1.719611         2.999940        -0.745801
 C         0.756626         1.905208        -0.276898
 C         0.584927         0.787094        -1.388615
 C         1.499229         1.231050        -2.500515
 O         0.878836         2.450714        -3.014837
 C         1.406380         1.236683         1.017855
 O         1.630867         0.062295         1.146675
 H         3.008681         4.449440        -2.685762
 H         4.237528         3.135747        -2.443621
 H         3.462126         3.052332        -3.950518
 H         2.630703         3.168795        -0.043968
 H         1.246061         4.030490        -0.785866
 H        -0.268730         2.166362         0.141860
 H         0.793398        -0.189148        -0.923498
 H        -0.403881         0.722237        -1.766277
 H         2.003179         0.460202        -3.033191
 H         1.786986         1.877399         1.834216
