19
Iteration:  1231charge 0 multiplicity 1
 C         3.282386         2.925218        -3.439735
 C         2.161534         2.390809        -2.406078
 C         2.619230         1.945449        -1.001708
 C         1.193700         1.679452        -0.385072
 C         0.491299         0.978110        -1.456835
 C         0.830155         1.755926        -2.725514
 O         0.962942         3.217914        -2.440391
 C         1.182747         0.731506         0.852374
 O         1.165392         0.888270         2.069418
 H         3.509110         3.839094        -2.891946
 H         4.232317         2.325295        -3.487735
 H         2.680079         3.222906        -4.359972
 H         3.330025         1.063561        -1.012969
 H         3.091138         2.714102        -0.371624
 H         0.725145         2.603922        -0.015281
 H         0.862840         0.012902        -1.736588
 H        -0.594365         1.048017        -1.194054
 H         0.397598         1.531083        -3.683087
 H         1.150756        -0.307767         0.493911
