19
Iteration:  1970charge 0 multiplicity 1
 C         3.176058         2.999429        -3.370546
 C         2.184203         2.535514        -2.344237
 C         2.394468         2.327883        -0.861538
 C         1.118466         1.556037        -0.313543
 C         0.509332         0.886512        -1.570622
 C         0.988475         1.672921        -2.723951
 O         0.885911         3.062149        -2.520036
 C         1.521592         0.641230         0.797394
 O         1.086422         0.866328         1.992506
 H         3.809051         3.826737        -3.020183
 H         3.794374         2.121748        -3.169334
 H         3.004506         3.037330        -4.523581
 H         3.414932         1.870351        -0.577029
 H         2.459753         3.347674        -0.380724
 H         0.511072         2.386844         0.102738
 H         0.844330        -0.151719        -1.658125
 H        -0.581052         0.865878        -1.499560
 H         0.993815         1.322149        -3.692848
 H         2.042646        -0.291884         0.552816
