19
Iteration:  4637
 C         3.290788         3.262488        -2.972561
 C         2.024060         2.688089        -2.260611
 C         1.786721         2.989426        -0.718397
 C         0.872091         1.775405        -0.280222
 C         0.874324         0.699803        -1.358576
 C         1.450238         1.353200        -2.572597
 O         0.773934         2.631065        -3.013906
 C         1.266267         1.206573         1.063518
 O         1.503967         0.045044         1.330051
 H         3.071161         4.300484        -3.140043
 H         4.199687         3.038197        -2.380191
 H         3.441908         2.696518        -3.954947
 H         2.692113         2.883934        -0.127279
 H         1.313561         4.034544        -0.716052
 H        -0.085106         2.273932        -0.289773
 H         1.718603        -0.090517        -1.180666
 H        -0.130957         0.129396        -1.390488
 H         1.803023         0.810967        -3.501286
 H         1.328765         1.985184         1.826531
