19
Iteration:  2439
 C         3.272844         2.740370        -3.216165
 C         2.106403         2.562419        -2.343483
 C         2.288994         2.639030        -0.782691
 C         1.084341         1.834302        -0.258643
 C         0.475237         1.026489        -1.403530
 C         1.051926         1.563585        -2.696928
 O         0.824571         2.970824        -2.728605
 C         1.613799         0.794321         0.766694
 O         1.152166         0.476791         1.807978
 H         3.553432         3.895599        -3.085636
 H         4.053293         1.956925        -2.948862
 H         3.114195         2.746039        -4.322008
 H         3.276241         2.315423        -0.431065
 H         2.199314         3.682864        -0.501887
 H         0.342873         2.521682         0.313679
 H         0.872249         0.013890        -1.203385
 H        -0.707744         1.055785        -1.537364
 H         0.966694         1.015776        -3.692936
 H         2.541657         0.317538         0.393773
