19
Iteration:   581charge 0 multiplicity 1
 C         3.123713         2.750795        -3.560023
 C         2.197193         2.389937        -2.410917
 C         2.688717         1.724295        -1.112162
 C         1.411902         1.588797        -0.367927
 C         0.432810         1.122591        -1.407655
 C         0.841022         1.934275        -2.654237
 O         0.956936         3.309948        -2.299218
 C         1.529832         0.790083         1.000493
 O         0.763196         0.917730         1.930474
 H         4.041776         3.252759        -3.156931
 H         3.406074         1.867214        -4.334696
 H         2.549730         3.402767        -4.239590
 H         2.892075         0.673046        -1.523361
 H         3.511536         2.135886        -0.398977
 H         1.204870         2.627464         0.014152
 H         0.406228         0.051916        -1.729685
 H        -0.598658         1.323560        -1.060909
 H         0.351645         1.860677        -3.630288
 H         2.568179         0.188796         1.168066
