19
Iteration:  1558charge 0 multiplicity 1
 C         3.445336         2.613212        -2.993509
 C         2.136276         2.468996        -2.241604
 C         2.014706         2.738450        -0.740364
 C         0.876134         1.789107        -0.141686
 C         0.122410         1.386133        -1.358171
 C         0.966108         1.609041        -2.624770
 O         1.008449         2.977234        -3.106631
 C         1.554214         0.608216         0.638493
 O         1.693286         0.417467         1.785694
 H         4.145145         3.356910        -2.729310
 H         3.888169         1.590187        -3.021128
 H         3.132829         2.921208        -4.054776
 H         3.033896         2.591407        -0.307768
 H         1.772658         3.863399        -0.656486
 H         0.249142         2.190032         0.694527
 H        -0.393707         0.423884        -1.196435
 H        -0.701873         2.119266        -1.573280
 H         0.859066         0.787652        -3.333787
 H         1.993713        -0.109753        -0.120874
