19
Iteration:  2776
 C         3.333695         2.773416        -2.999455
 C         2.108561         2.533020        -2.204195
 C         1.990506         2.686704        -0.733216
 C         0.919862         1.571027        -0.264874
 C         0.312727         1.039738        -1.538553
 C         1.122378         1.580407        -2.660744
 O         0.884637         2.956366        -3.035197
 C         1.655259         0.670561         0.671772
 O         1.537026         0.722298         1.906653
 H         3.586478         3.833078        -3.142338
 H         4.240295         2.505852        -2.437227
 H         3.428120         2.170709        -3.834864
 H         2.815795         2.925787        -0.045700
 H         1.402263         3.765986        -0.549627
 H         0.126538         1.993923         0.357011
 H         0.193638        -0.026085        -1.570331
 H        -0.708642         1.561116        -1.602915
 H         1.360419         0.942529        -3.466733
 H         2.073684        -0.176828         0.128854
