19
Iteration:  2203charge 0 multiplicity 1
 C         3.400561         2.574447        -2.923956
 C         2.090835         2.574300        -2.211050
 C         2.001762         2.846648        -0.756444
 C         0.991368         1.919130        -0.141078
 C         0.231288         1.267604        -1.324259
 C         1.068021         1.568476        -2.575942
 O         0.876745         2.878395        -3.047191
 C         1.557720         0.685954         0.494401
 O         1.581038         0.377160         1.675536
 H         3.754615         3.620126        -3.154988
 H         4.044452         1.910238        -2.194551
 H         3.450855         2.007719        -3.848328
 H         2.980640         2.686513        -0.403032
 H         1.722020         3.914150        -0.584111
 H         0.311126         2.547655         0.532040
 H         0.247517         0.158637        -1.098257
 H        -0.771867         1.606132        -1.408084
 H         1.220593         0.755260        -3.397619
 H         2.193979         0.074375        -0.214750
