19
Iteration:   823
 C         3.411937         2.199274        -2.972695
 C         2.066833         2.341358        -2.249882
 C         2.223768         2.593918        -0.760491
 C         0.999684         1.823144        -0.140915
 C        -0.016391         1.593705        -1.385332
 C         0.752249         1.797796        -2.661726
 O         1.102679         3.193421        -2.901905
 C         1.489126         0.578697         0.507104
 O         1.747402         0.491411         1.719097
 H         3.877344         3.201245        -3.027967
 H         4.161721         1.444821        -2.454645
 H         3.311999         1.899020        -3.990302
 H         3.088674         2.313517        -0.196019
 H         1.967174         3.670703        -0.666527
 H         0.462164         2.314307         0.660190
 H        -0.413536         0.515272        -1.317899
 H        -0.889536         2.292673        -1.308831
 H         0.587965         1.146697        -3.563320
 H         1.710283        -0.270196        -0.215652
