19
Iteration:  1092charge 0 multiplicity 1
 C         3.338624         2.371655        -3.236155
 C         2.153206         2.448730        -2.284653
 C         2.323164         2.758759        -0.829843
 C         1.223472         1.940912        -0.121184
 C         0.086476         1.393276        -1.286833
 C         0.944521         1.652345        -2.487959
 O         0.980019         3.089562        -2.849125
 C         1.631778         0.696190         0.590559
 O         1.176469         0.284495         1.693502
 H         3.923844         3.296958        -3.317139
 H         4.050362         1.660395        -3.012266
 H         2.963582         2.122653        -4.298588
 H         3.261537         2.448930        -0.458719
 H         2.323431         3.754618        -0.479155
 H         0.619785         2.602407         0.511263
 H        -0.025285         0.346883        -1.038708
 H        -0.808973         2.065190        -1.276121
 H         0.817416         1.109550        -3.422903
 H         2.524742         0.073827         0.186078
