19
Iteration:  4256charge 0 multiplicity 1
 C         3.119822         3.404769        -3.145713
 C         2.078704         2.652506        -2.294928
 C         2.089779         2.791747        -0.697450
 C         0.938043         1.804472        -0.281052
 C         0.924784         0.610433        -1.355168
 C         1.416714         1.347980        -2.596248
 O         0.843999         2.654315        -2.900403
 C         0.998640         1.263226         1.123973
 O         1.433323         0.132116         1.353300
 H         2.949693         4.494534        -3.154308
 H         4.158106         3.219602        -2.789057
 H         3.026889         3.009021        -4.037430
 H         3.124929         2.218752        -0.359769
 H         1.894576         3.796792        -0.406491
 H        -0.087875         2.211633        -0.430166
 H         1.782862        -0.201965        -1.196929
 H         0.005756        -0.011439        -1.295628
 H         1.706199         0.815992        -3.521234
 H         0.777023         1.948376         1.919465
