19
Iteration:  3689
 C         3.408365         2.898519        -2.665208
 C         2.006538         2.568194        -2.138673
 C         1.692668         2.797252        -0.713790
 C         0.613915         1.691352        -0.340739
 C         0.663282         0.681346        -1.567688
 C         1.283610         1.429007        -2.682732
 O         0.826811         2.848424        -2.945442
 C         1.058835         0.950683         0.923011
 O         2.200640         0.748769         1.317773
 H         3.594258         4.052055        -2.681595
 H         4.259562         2.370514        -2.013482
 H         3.657361         2.519980        -3.622623
 H         2.532423         2.639408        -0.069751
 H         1.205202         3.786662        -0.670709
 H        -0.461797         2.128523        -0.088278
 H         1.301034        -0.223870        -1.407220
 H        -0.228131         0.191492        -1.837899
 H         1.473294         0.965657        -3.622009
 H         0.098723         0.434668         1.296744
