19
Iteration:   328
 C         3.288357         2.019087        -3.183787
 C         2.132553         2.314714        -2.333416
 C         2.349883         2.240611        -0.776885
 C         1.016505         1.887093        -0.082025
 C        -0.022541         1.817006        -1.304196
 C         0.733178         1.940694        -2.538523
 O         1.184477         3.373579        -2.699426
 C         1.402693         0.549897         0.462269
 O         1.675854         0.435227         1.647139
 H         3.770711         2.945875        -3.190563
 H         3.958564         1.268914        -2.889064
 H         2.929346         1.797686        -4.238510
 H         3.139762         1.393316        -0.632899
 H         2.697157         3.260000        -0.401348
 H         0.702158         2.627753         0.660626
 H        -0.786900         0.942377        -1.438615
 H        -0.583406         2.751175        -1.110453
 H         0.410828         1.502062        -3.371983
 H         1.780018        -0.036822        -0.436219
