19
Iteration:  2048charge 0 multiplicity 1
 C         3.352635         2.747510        -3.105054
 C         2.157835         2.519034        -2.288669
 C         2.226273         2.631695        -0.779003
 C         1.103101         1.699101        -0.265118
 C         0.178046         1.101690        -1.523587
 C         0.987560         1.569746        -2.659652
 O         0.878392         2.979939        -2.812849
 C         1.710432         0.712877         0.672462
 O         1.295442         0.591984         1.872172
 H         3.585781         3.811672        -3.079139
 H         4.202605         2.187430        -2.629234
 H         3.107918         2.601264        -4.198555
 H         3.177846         2.512546        -0.293341
 H         1.828250         3.651685        -0.490583
 H         0.545799         2.405911         0.444499
 H         0.138869         0.010814        -1.515475
 H        -0.827120         1.402528        -1.471732
 H         0.891839         1.017213        -3.554945
 H         2.548827         0.078606         0.256440
