19
Iteration:  1656
 C         3.379914         2.432179        -3.146759
 C         2.136005         2.458039        -2.258409
 C         2.039037         2.888563        -0.775258
 C         0.958641         1.895155        -0.105575
 C         0.229643         1.254677        -1.317799
 C         0.974674         1.662220        -2.568314
 O         0.962895         3.070809        -2.958657
 C         1.771665         0.694328         0.655573
 O         1.390231         0.296427         1.686690
 H         3.596071         3.356347        -3.509426
 H         4.112007         1.994998        -2.470504
 H         3.350110         1.808432        -4.071110
 H         2.947469         2.927294        -0.153371
 H         1.528909         3.895645        -0.612513
 H         0.287141         2.475615         0.598151
 H         0.318275         0.231441        -1.325729
 H        -0.824106         1.453032        -1.390624
 H         1.209705         0.982356        -3.398240
 H         2.525729         0.186962        -0.088721
