19
Iteration:  1335charge 0 multiplicity 1
 C         3.351394         2.932647        -3.165232
 C         2.116525         2.408346        -2.385709
 C         2.530138         1.977053        -0.982988
 C         1.110679         1.504384        -0.440365
 C         0.371643         0.906466        -1.654877
 C         0.787398         1.769935        -2.728612
 O         0.911588         3.203843        -2.412832
 C         1.195293         0.670082         0.881884
 O         1.409636         1.132456         1.976864
 H         4.049421         3.559089        -2.606075
 H         3.857899         2.132285        -3.658002
 H         3.039531         3.494626        -3.983174
 H         3.178398         1.080367        -1.110180
 H         3.035788         2.740420        -0.321041
 H         0.653817         2.400662        -0.059516
 H         0.728800        -0.130100        -1.862638
 H        -0.707549         0.823128        -1.619238
 H         0.658989         1.531491        -3.806278
 H         1.378500        -0.400846         0.765733
