19
Iteration:  4200
 C         3.123928         3.479118        -2.921615
 C         2.126259         2.625495        -2.277771
 C         2.137202         2.502082        -0.720972
 C         0.939489         1.613793        -0.361183
 C         0.798378         0.594940        -1.520685
 C         1.422700         1.372720        -2.693305
 O         0.757585         2.674946        -2.911157
 C         1.022754         1.354368         1.057253
 O         1.554850         0.348720         1.526406
 H         2.860149         4.535579        -2.828436
 H         4.134208         3.372367        -2.618553
 H         3.114592         3.330813        -3.986540
 H         3.265711         2.067830        -0.499195
 H         2.097981         3.445303        -0.189363
 H        -0.018903         2.136505        -0.547732
 H         1.420508        -0.363568        -1.255309
 H        -0.237626         0.191633        -1.710641
 H         1.490185         0.820137        -3.647687
 H         0.603648         2.162482         1.719021
