19
Iteration:   204
 C         3.392868         2.241868        -3.170530
 C         2.120758         2.292639        -2.286810
 C         2.474851         2.083373        -0.837071
 C         1.029048         1.987764        -0.255783
 C         0.040571         1.366728        -1.353472
 C         0.727350         1.951918        -2.593185
 O         1.142038         3.314669        -2.491784
 C         0.952327         1.101492         1.078094
 O         1.883534         0.295031         1.096842
 H         4.287515         2.864378        -2.765589
 H         3.769129         1.208820        -3.087500
 H         3.323208         2.650065        -4.114675
 H         2.863655         0.960062        -0.615071
 H         3.093162         2.967853        -0.562713
 H         0.676192         3.012934        -0.066719
 H        -0.148483         0.196815        -1.320222
 H        -1.004927         1.744800        -1.195041
 H         0.384990         1.645909        -3.666664
 H         0.091474         1.302551         1.758929
