19
Iteration:   790charge 0 multiplicity 1
 C         3.440312         2.208445        -3.180738
 C         2.172684         2.409017        -2.313892
 C         2.220962         2.564239        -0.685243
 C         0.967021         1.770309        -0.148561
 C        -0.008359         1.524848        -1.396884
 C         0.778991         1.791348        -2.632206
 O         1.084668         3.264928        -2.865904
 C         1.418367         0.534263         0.607803
 O         1.714738         0.537929         1.779506
 H         4.160702         2.922823        -2.811860
 H         4.052035         1.203982        -3.192490
 H         3.068257         2.294765        -4.135903
 H         3.111349         2.514178        -0.042527
 H         1.990663         3.669373        -0.630962
 H         0.507632         2.400660         0.629551
 H        -0.313003         0.383334        -1.509550
 H        -1.037604         1.980333        -1.314068
 H         0.774201         1.132786        -3.557619
 H         1.606416        -0.353081        -0.023707
