19
Iteration:   810
 C         3.410994         2.232647        -3.053948
 C         2.179405         2.297185        -2.343849
 C         2.093223         2.637907        -0.810418
 C         0.897279         1.750958        -0.175661
 C         0.019560         1.552898        -1.313852
 C         0.790369         1.811191        -2.656630
 O         1.157487         3.218207        -2.818887
 C         1.519251         0.553953         0.574107
 O         1.725022         0.501387         1.752731
 H         4.032571         3.158275        -2.878926
 H         4.041146         1.310505        -2.602320
 H         3.133704         2.064013        -4.233596
 H         3.139027         2.556888        -0.587069
 H         1.980355         3.773831        -0.613198
 H         0.539510         2.539466         0.546241
 H        -0.492829         0.556048        -1.464750
 H        -0.807080         2.277497        -1.140911
 H         0.503134         1.288680        -3.609618
 H         1.484048        -0.462752         0.037522
