19
Iteration:  2808
 C         3.429501         2.781628        -2.951850
 C         2.135726         2.618672        -2.277926
 C         1.879690         2.809055        -0.712171
 C         0.822365         1.674714        -0.210859
 C         0.274542         1.064394        -1.487813
 C         1.127021         1.492756        -2.631726
 O         0.916746         2.871234        -3.026738
 C         1.569004         0.635886         0.623169
 O         1.677142         0.668094         1.829064
 H         3.795174         3.829706        -3.023142
 H         4.113913         2.225026        -2.276142
 H         3.338271         2.326379        -3.896429
 H         2.854103         2.802936        -0.276569
 H         1.292535         3.840844        -0.635045
 H         0.018421         2.058753         0.503030
 H         0.296433        -0.028005        -1.437490
 H        -0.771385         1.503612        -1.586376
 H         1.391837         0.815124        -3.449733
 H         1.899937        -0.314718         0.056998
