19
Iteration:  3097
 C         3.404451         2.871693        -3.068227
 C         2.182497         2.495403        -2.278252
 C         1.985181         2.838178        -0.775016
 C         0.846313         1.754717        -0.204155
 C         0.293046         0.941797        -1.459708
 C         1.103170         1.513932        -2.701280
 O         0.901250         2.873432        -2.924356
 C         1.659764         0.874383         0.766376
 O         1.443214         0.448896         1.865997
 H         3.860169         3.819277        -3.265530
 H         4.275253         2.242551        -2.777025
 H         3.174359         2.482042        -4.181649
 H         2.936343         2.870500        -0.333185
 H         1.514296         3.844338        -0.770586
 H         0.136978         2.283842         0.365566
 H         0.488125        -0.213742        -1.333606
 H        -0.817083         0.952341        -1.577023
 H         1.141891         0.975664        -3.737059
 H         2.659071         0.709259         0.224878
