19
Iteration:  1177
 C         3.283624         2.638791        -3.363000
 C         2.187402         2.434457        -2.325348
 C         2.486557         2.333359        -0.880119
 C         1.181513         1.676042        -0.251051
 C         0.224371         1.156578        -1.444272
 C         0.867066         1.797895        -2.641152
 O         0.948333         3.229019        -2.663998
 C         1.585963         0.603435         0.823451
 O         1.110047         0.708244         1.887061
 H         4.015035         3.406772        -3.037916
 H         3.812606         1.622675        -3.308766
 H         2.863206         2.746429        -4.438023
 H         3.415612         1.676070        -0.594625
 H         2.586466         3.370476        -0.501282
 H         0.576961         2.327259         0.421261
 H         0.173074         0.043053        -1.670897
 H        -0.880983         1.505423        -1.267435
 H         0.808040         1.347231        -3.630243
 H         2.464333        -0.100346         0.480031
