19
Iteration:  1875charge 0 multiplicity 1
 C         3.055406         3.228856        -3.289116
 C         2.194164         2.450946        -2.337274
 C         2.662891         2.043909        -0.971391
 C         1.370141         1.541575        -0.304922
 C         0.520890         0.819294        -1.592880
 C         0.954367         1.632005        -2.734709
 O         0.890653         3.028218        -2.398024
 C         1.451753         0.625341         0.843464
 O         0.905830         1.119056         1.909238
 H         3.340263         4.172631        -2.892533
 H         3.840211         2.530072        -3.779657
 H         2.319573         3.158199        -4.104664
 H         3.503513         1.450227        -1.066362
 H         3.118173         2.847464        -0.350851
 H         0.694408         2.345793         0.151332
 H         0.681709        -0.319706        -1.751199
 H        -0.536872         1.159900        -1.593070
 H         0.679444         1.263376        -3.787466
 H         1.666712        -0.437997         0.691075
