19
Iteration:  4312
 C         3.292877         3.202164        -3.017386
 C         2.010732         2.718926        -2.299420
 C         1.845681         2.961238        -0.818017
 C         1.005309         1.732023        -0.327548
 C         1.057190         0.592916        -1.333001
 C         1.373828         1.429317        -2.595984
 O         0.702199         2.690027        -2.920912
 C         1.359047         1.226973         1.071772
 O         1.249343         0.072107         1.392455
 H         3.348105         4.249597        -2.817746
 H         4.058376         2.552603        -2.580382
 H         3.253303         3.058878        -4.003283
 H         2.790297         3.135566        -0.185105
 H         1.269523         3.853834        -0.649706
 H        -0.027235         2.041164        -0.185265
 H         1.879271        -0.118311        -1.211785
 H         0.067400         0.175627        -1.392032
 H         1.728976         1.087084        -3.557969
 H         1.634958         1.988871         1.885589
