19
Iteration:  4950
 C         3.331808         2.761732        -2.277133
 C         1.921742         2.593893        -2.065404
 C         1.256922         3.071444        -0.841155
 C         0.588891         1.800006        -0.124623
 C         0.231575         0.901730        -1.415436
 C         1.358962         1.320154        -2.404205
 O         1.137205         2.551981        -3.288898
 C         1.630362         1.330308         0.828574
 O         2.268967         0.295249         0.796041
 H         3.613302         3.812908        -2.290473
 H         3.758575         2.436482        -1.353997
 H         3.825896         2.199200        -3.146117
 H         1.867966         3.599831        -0.134525
 H         0.303041         3.784106        -0.985901
 H        -0.342384         2.131827         0.339351
 H         0.224964        -0.212792        -0.989133
 H        -0.797221         1.252869        -1.680142
 H         1.906657         0.628436        -2.968796
 H         1.908819         2.045684         1.663494
