19
Iteration:    26charge 0 multiplicity 1
 C         3.202043         2.739162        -3.447908
 C         2.242970         2.492978        -2.323024
 C         2.538795         2.328313        -0.859965
 C         1.310833         1.693252        -0.240161
 C         0.402740         1.134130        -1.429941
 C         1.006521         1.726541        -2.672721
 O         0.992788         3.211870        -2.572007
 C         1.513560         0.674980         0.917388
 O         0.724103         0.574570         1.797295
 H         3.818052         3.549296        -3.192008
 H         3.827800         1.871056        -3.719892
 H         2.630156         3.009049        -4.412054
 H         3.543639         1.704756        -0.760787
 H         2.761881         3.314197        -0.387963
 H         0.737042         2.518757         0.221222
 H         0.541089        -0.076490        -1.557198
 H        -0.663959         1.356416        -1.282740
 H         0.863148         1.366544        -3.633902
 H         2.418137        -0.047575         0.842311
