19
Iteration:  4500charge 0 multiplicity 1
 C         3.057876         3.528921        -3.135486
 C         2.105342         2.635309        -2.368334
 C         2.159849         2.718833        -0.828240
 C         1.025545         1.727443        -0.334741
 C         1.124196         0.646829        -1.412467
 C         1.456887         1.357643        -2.632803
 O         0.754111         2.578524        -2.773955
 C         1.092637         1.232662         1.106161
 O         1.130622         0.126873         1.533062
 H         3.045340         4.671928        -2.681582
 H         4.189315         3.190834        -3.287908
 H         2.617685         3.786074        -4.245233
 H         3.162826         2.425547        -0.507072
 H         2.035843         3.614562        -0.265308
 H         0.099276         2.312124        -0.464593
 H         1.996125         0.024594        -1.179550
 H         0.211108         0.095788        -1.499847
 H         1.529701         0.918466        -3.642040
 H         1.250736         2.075253         1.922725
