19
Iteration:  1831charge 0 multiplicity 1
 C         3.208187         3.031883        -3.378479
 C         2.163157         2.514354        -2.397243
 C         2.474408         2.175422        -0.970526
 C         1.240390         1.680045        -0.298268
 C         0.532975         0.812407        -1.519929
 C         0.983910         1.708688        -2.753695
 O         0.831843         3.126922        -2.519240
 C         1.517251         0.754056         0.909722
 O         0.958304         0.779512         2.036886
 H         3.466996         4.061202        -3.131318
 H         4.184959         2.420928        -3.196311
 H         2.954015         2.914937        -4.488734
 H         3.112167         1.340820        -0.927192
 H         3.091914         3.033085        -0.595830
 H         0.487117         2.506585        -0.010349
 H         1.068837        -0.231789        -1.578348
 H        -0.518564         0.652647        -1.230878
 H         0.608374         1.494680        -3.800673
 H         2.016414        -0.191239         0.631404
