19
Iteration:  1085charge 0 multiplicity 1
 C         3.383417         2.414733        -3.243715
 C         2.197139         2.420977        -2.371313
 C         2.258480         2.769425        -0.783645
 C         1.228473         1.973107        -0.144172
 C         0.092801         1.437364        -1.246207
 C         0.893954         1.653673        -2.494633
 O         0.994429         3.044560        -2.826042
 C         1.653073         0.614088         0.641101
 O         1.175167         0.300660         1.657043
 H         3.888901         3.399625        -3.328312
 H         4.165289         1.566153        -2.929775
 H         2.935738         2.187703        -4.214579
 H         3.292473         2.428385        -0.401299
 H         2.253978         3.944753        -0.748342
 H         0.608593         2.520464         0.600063
 H        -0.233811         0.391446        -1.088873
 H        -0.696340         2.147737        -1.241138
 H         0.631924         0.998185        -3.380848
 H         2.522985         0.098515         0.178499
