19
Iteration:  4026
 C         3.262803         3.284955        -2.873079
 C         2.050480         2.639029        -2.246559
 C         1.721549         2.903119        -0.807645
 C         0.833221         1.747892        -0.219107
 C         0.729834         0.689318        -1.413896
 C         1.415780         1.339617        -2.590994
 O         0.868669         2.675013        -3.115202
 C         1.409979         1.235711         1.060780
 O         1.537382         0.078056         1.384977
 H         3.034538         4.300650        -3.354863
 H         4.244297         3.616554        -2.279383
 H         3.634264         2.583726        -3.725350
 H         2.536077         2.989710        -0.127866
 H         1.309465         3.935922        -0.688565
 H        -0.085360         2.194844         0.124740
 H         1.338220        -0.239513        -1.143684
 H        -0.332151         0.370044        -1.535177
 H         1.765227         0.606545        -3.327653
 H         1.552336         2.095327         1.833056
