19
Iteration:  4209charge 0 multiplicity 1
 C         3.092034         3.525841        -2.968996
 C         2.052062         2.596797        -2.247880
 C         2.201407         2.592842        -0.732955
 C         0.967160         1.665018        -0.420924
 C         0.784906         0.592082        -1.514632
 C         1.420675         1.333568        -2.727934
 O         0.815821         2.622129        -2.885034
 C         1.028166         1.317978         1.117855
 O         1.533651         0.306397         1.542629
 H         2.868426         4.574601        -2.721345
 H         4.044669         3.405196        -2.511959
 H         3.161817         3.243969        -4.139967
 H         3.147749         1.924939        -0.549227
 H         1.994262         3.519427        -0.225664
 H         0.204000         2.550159        -0.441304
 H         1.101428        -0.368740        -1.200143
 H        -0.329616         0.346338        -1.749206
 H         1.759601         0.990900        -3.719819
 H         0.479771         2.050027         1.703517
