19
Iteration:   675
 C         3.229692         2.553511        -3.505778
 C         2.212181         2.496452        -2.416647
 C         2.540409         1.978792        -0.963725
 C         1.179375         1.679683        -0.277155
 C         0.264080         1.236120        -1.479869
 C         0.928144         1.931322        -2.695658
 O         0.966285         3.348222        -2.468806
 C         1.346597         0.568057         0.873506
 O         1.214270         0.827998         2.049011
 H         3.743250         3.484391        -3.473182
 H         3.963056         1.860449        -3.320297
 H         2.804383         2.162810        -4.472686
 H         3.106224         1.044892        -1.001474
 H         3.047878         2.743261        -0.444057
 H         0.803087         2.554780         0.231870
 H         0.383064         0.168296        -1.545701
 H        -0.793272         1.322587        -1.396741
 H         0.628729         1.626911        -3.668858
 H         1.591105        -0.473457         0.447994
