19
Iteration:  1086
 C         3.372728         2.409062        -3.244146
 C         2.190189         2.424813        -2.361573
 C         2.261810         2.767039        -0.788783
 C         1.236457         1.972090        -0.142758
 C         0.084192         1.428339        -1.256202
 C         0.904263         1.653343        -2.489485
 O         0.992180         3.051682        -2.829599
 C         1.647884         0.622098         0.633474
 O         1.177062         0.298700         1.661831
 H         3.901390         3.376177        -3.334269
 H         4.172616         1.562768        -2.940371
 H         2.944589         2.187498        -4.184513
 H         3.310891         2.427001        -0.396127
 H         2.284314         3.942897        -0.697771
 H         0.605208         2.534817         0.566133
 H        -0.185269         0.360007        -1.072025
 H        -0.703893         2.149120        -1.251250
 H         0.655004         1.029623        -3.384848
 H         2.507457         0.109568         0.202990
