19
Iteration:  1343charge 0 multiplicity 1
 C         3.292885         2.922982        -3.213249
 C         2.152849         2.464408        -2.369721
 C         2.482955         1.993219        -0.975127
 C         1.152873         1.516063        -0.331894
 C         0.334812         0.890679        -1.586019
 C         0.916923         1.785630        -2.812767
 O         0.881175         3.198763        -2.464519
 C         1.164557         0.653549         0.826885
 O         1.429509         1.095486         2.005543
 H         4.131244         3.387966        -2.573241
 H         3.917721         2.115934        -3.547455
 H         3.099072         3.572692        -4.100170
 H         3.253173         1.139880        -0.988055
 H         2.913246         2.758064        -0.366887
 H         0.625363         2.441901        -0.104970
 H         0.561823        -0.102479        -1.895367
 H        -0.740101         1.043704        -1.352946
 H         0.681228         1.363028        -3.792779
 H         1.183637        -0.508675         0.659733
