19
Iteration:  4999
 C         3.453039         2.980032        -2.333178
 C         1.939901         2.591762        -2.074652
 C         1.278091         3.096699        -0.929079
 C         0.642378         1.872445        -0.146184
 C         0.388174         0.900022        -1.313918
 C         1.359768         1.205572        -2.345305
 O         1.027677         2.460324        -3.167110
 C         1.593244         1.315485         0.788389
 O         2.063034         0.192517         0.755738
 H         3.448234         4.054790        -2.031454
 H         4.237192         2.485687        -1.658464
 H         3.769327         2.757928        -3.351667
 H         1.931358         3.774346        -0.245776
 H         0.616905         3.860094        -1.247370
 H        -0.311720         2.153449         0.373999
 H         0.403951        -0.055106        -0.906304
 H        -0.598047         1.215818        -1.654061
 H         1.733290         0.368058        -3.070490
 H         2.062601         1.971448         1.601878
