19
Iteration:  1429
 C         3.436674         2.556417        -3.087352
 C         2.137672         2.457274        -2.298084
 C         2.257045         2.460258        -0.740816
 C         0.997331         1.669686        -0.291214
 C         0.210151         1.124138        -1.519204
 C         0.894049         1.707367        -2.725002
 O         0.878887         3.266305        -2.753568
 C         1.407688         0.611875         0.705314
 O         1.637178         0.748956         1.836125
 H         3.753169         3.673399        -3.279266
 H         4.217530         1.969594        -2.530211
 H         3.247287         1.885981        -4.003139
 H         3.202505         2.003300        -0.388588
 H         2.190651         3.445253        -0.384936
 H         0.368493         2.386807         0.288368
 H         0.241648        -0.012946        -1.620815
 H        -0.908288         1.341980        -1.485022
 H         0.645742         1.117656        -3.605549
 H         1.281322        -0.466085         0.200484
