19
Iteration:  3749
 C         3.293504         3.314371        -2.827753
 C         2.095487         2.569349        -2.193064
 C         1.877198         2.732246        -0.690308
 C         0.729733         1.778010        -0.323175
 C         0.562698         0.739316        -1.453681
 C         1.414679         1.305735        -2.599854
 O         0.891576         2.583666        -2.962392
 C         0.953007         1.022053         0.938302
 O         1.982339         0.536185         1.329651
 H         3.439653         4.365471        -2.549150
 H         4.187980         2.762258        -2.713277
 H         2.911973         3.403415        -3.929690
 H         2.994282         2.469268        -0.258700
 H         1.810375         3.826232        -0.498637
 H        -0.198291         2.234379        -0.245105
 H         1.052522        -0.221792        -1.134915
 H        -0.539260         0.681281        -1.841604
 H         1.711220         0.722634        -3.551579
 H         0.126189         0.899540         1.653940
