19
Iteration:  1965charge 0 multiplicity 1
 C         3.184326         3.003382        -3.374704
 C         2.186861         2.573542        -2.359108
 C         2.434035         2.335463        -0.865986
 C         1.131252         1.507841        -0.349803
 C         0.488197         0.836512        -1.574004
 C         0.985023         1.711222        -2.709060
 O         0.875212         3.058925        -2.463598
 C         1.512213         0.647387         0.826667
 O         1.070751         0.912515         1.936683
 H         3.847910         3.791382        -2.991270
 H         3.892598         2.126433        -3.328448
 H         2.965294         2.939966        -4.390037
 H         3.301139         1.789692        -0.592970
 H         2.491925         3.249646        -0.302316
 H         0.449475         2.226886         0.090086
 H         0.942336        -0.164490        -1.724639
 H        -0.618162         0.922230        -1.347098
 H         0.927035         1.136291        -3.755189
 H         2.163166        -0.315124         0.692137
