19
Iteration:  4119charge 0 multiplicity 1
 C         3.231884         3.210373        -3.045828
 C         2.040214         2.650754        -2.277045
 C         1.869861         2.841938        -0.759948
 C         0.811814         1.807123        -0.285178
 C         1.000041         0.744807        -1.398706
 C         1.442888         1.422561        -2.672412
 O         0.795146         2.671672        -2.930360
 C         0.996989         1.133176         1.133241
 O         1.635147         0.159277         1.406331
 H         3.588805         4.228019        -2.722224
 H         4.045219         2.446656        -2.827132
 H         2.951733         3.071720        -4.165091
 H         2.967829         2.848544        -0.255067
 H         1.582830         3.939411        -0.553491
 H        -0.303948         2.133819        -0.290120
 H         1.742807         0.054950        -1.064865
 H         0.004638         0.321802        -1.599671
 H         1.848299         0.813511        -3.479369
 H         0.540805         1.703618         2.025689
