19
Iteration:  3699
 C         3.379061         2.893689        -2.710307
 C         2.047743         2.608855        -2.185919
 C         1.689035         2.768249        -0.628174
 C         0.675744         1.700593        -0.367851
 C         0.661010         0.680352        -1.507690
 C         1.292144         1.448070        -2.653877
 O         0.842553         2.788815        -2.924475
 C         1.012570         0.984707         0.879553
 O         2.153009         0.729282         1.253085
 H         3.506936         4.012602        -2.564770
 H         4.162014         2.438770        -1.973952
 H         3.439279         2.640998        -3.744325
 H         2.502814         2.782534        -0.043626
 H         1.335383         3.797610        -0.408104
 H        -0.435307         2.066612        -0.421285
 H         1.417268        -0.062732        -1.273958
 H        -0.301904         0.293081        -1.664666
 H         1.654635         0.920542        -3.543489
 H         0.298368         0.418359         1.477669
