19
Iteration:  3353
 C         3.242708         3.138087        -3.298566
 C         2.047909         2.564249        -2.356221
 C         2.490889         2.471243        -0.922034
 C         1.235591         1.600737        -0.320860
 C         0.835031         0.642589        -1.474062
 C         1.004286         1.535083        -2.756298
 O         0.672282         2.911340        -2.590218
 C         1.558010         0.964044         0.954894
 O         0.813458         0.716099         1.873576
 H         3.287296         4.265491        -3.069302
 H         4.209103         2.827053        -2.803166
 H         2.950847         3.074595        -4.369122
 H         3.448442         1.984481        -0.955987
 H         2.411779         3.429851        -0.510321
 H         0.486865         2.372917        -0.196415
 H         1.663390        -0.133339        -1.499849
 H        -0.146909         0.085866        -1.284021
 H         0.903970         1.108788        -3.813424
 H         2.584340         0.564700         1.088802
