19
Iteration:  3953
 C         3.209797         3.236536        -2.901418
 C         2.044611         2.584020        -2.163446
 C         1.761949         2.949901        -0.774664
 C         0.813601         1.847105        -0.285204
 C         0.874439         0.679582        -1.350198
 C         1.471205         1.351943        -2.634380
 O         0.807806         2.553618        -2.955802
 C         1.329016         1.325010         0.976687
 O         1.501618         0.109052         1.247959
 H         3.419186         4.230428        -2.503440
 H         4.188615         2.836675        -2.763739
 H         3.052673         3.172637        -3.910742
 H         2.793789         2.884955        -0.198456
 H         1.387722         4.024960        -0.555154
 H        -0.230785         2.222314         0.063513
 H         1.543932        -0.065300        -0.952759
 H        -0.023775         0.134784        -1.521804
 H         1.879581         0.664287        -3.441728
 H         1.554861         2.180797         1.706231
