19
Iteration:  1722
 C         3.362477         2.769387        -3.178173
 C         2.116762         2.555197        -2.337679
 C         2.251593         2.608174        -0.838079
 C         1.093448         1.979829        -0.154983
 C         0.277888         1.259438        -1.234498
 C         0.958646         1.563881        -2.572486
 O         0.918897         2.888739        -2.974331
 C         1.652417         0.782904         0.687355
 O         1.218050         0.262119         1.785054
 H         3.871187         3.638499        -2.916271
 H         4.050024         1.919300        -2.983310
 H         3.126953         3.076655        -4.222296
 H         3.154459         2.074619        -0.528150
 H         2.294018         3.717223        -0.681759
 H         0.467889         2.773695         0.354947
 H         0.210212         0.252374        -1.039862
 H        -0.742541         1.515146        -1.093622
 H         1.030974         0.828490        -3.384940
 H         2.354563         0.166570         0.095231
