19
Iteration:  1593charge 0 multiplicity 1
 C         3.444370         2.517910        -2.920630
 C         2.124235         2.406280        -2.279661
 C         2.047920         2.793127        -0.748360
 C         0.951902         1.791887        -0.181562
 C         0.152910         1.295496        -1.320964
 C         0.893204         1.587605        -2.632266
 O         0.956783         3.008621        -2.904163
 C         1.726721         0.714275         0.480496
 O         1.535997         0.460657         1.655154
 H         3.963728         3.491344        -2.658659
 H         4.148649         1.718891        -2.554741
 H         3.359680         2.232067        -4.001479
 H         3.065450         2.739836        -0.252032
 H         1.673512         3.829175        -0.622882
 H         0.299648         2.369658         0.506009
 H        -0.370205         0.275377        -1.085235
 H        -0.671095         2.099894        -1.477810
 H         0.647725         0.903367        -3.484492
 H         2.484799         0.160738        -0.125574
