19
Iteration:  3565
 C         3.424539         2.921541        -2.693749
 C         2.052118         2.549630        -2.251231
 C         1.648330         2.773985        -0.728505
 C         0.786907         1.583850        -0.294124
 C         0.375645         0.882517        -1.576582
 C         1.223715         1.525225        -2.764720
 O         0.872074         2.814141        -3.125531
 C         1.460468         0.653014         0.743346
 O         1.948128         0.882577         1.838369
 H         3.618925         4.021758        -2.609428
 H         4.237809         2.283018        -2.215897
 H         3.505241         2.795563        -3.932732
 H         2.551339         2.628770        -0.201524
 H         1.067256         3.707245        -0.461590
 H        -0.143292         2.128444         0.255648
 H         0.470094        -0.257194        -1.377765
 H        -0.707591         1.069330        -1.817419
 H         1.717816         0.755396        -3.456526
 H         1.490466        -0.338583         0.220512
