19
Iteration:   490
 C         3.098757         2.394401        -3.681483
 C         2.199198         2.428712        -2.465253
 C         2.763014         2.135410        -0.953795
 C         1.454442         1.901725        -0.074544
 C         0.316166         1.434734        -1.159900
 C         0.835449         1.911187        -2.458188
 O         1.041666         3.359203        -2.589553
 C         1.541451         0.700838         0.879982
 O         0.720633         0.395580         1.716813
 H         3.557109         3.401804        -3.773215
 H         3.820660         1.573689        -3.672134
 H         2.380367         2.082486        -4.564002
 H         3.275258         1.248195        -1.126506
 H         3.166062         3.011780        -0.469481
 H         1.196125         2.872457         0.291718
 H         0.418538         0.371536        -1.274699
 H        -0.717867         1.602308        -0.925123
 H         0.373768         1.412999        -3.260330
 H         2.393263         0.089301         0.741005
