19
Iteration:  2447
 C         3.274623         2.810547        -3.270227
 C         2.165471         2.498883        -2.293184
 C         2.341300         2.577948        -0.750024
 C         1.053980         1.817067        -0.303213
 C         0.447011         1.036706        -1.469653
 C         1.076672         1.608003        -2.677507
 O         0.751946         2.989796        -2.766829
 C         1.621707         0.881786         0.780948
 O         1.133306         0.440151         1.865701
 H         3.853808         3.747158        -3.048717
 H         3.981505         1.966452        -3.087959
 H         2.807601         2.673998        -4.305637
 H         3.312984         2.246195        -0.367634
 H         2.265451         3.572274        -0.392659
 H         0.457837         2.594450         0.184423
 H         0.874019         0.027197        -1.360403
 H        -0.597988         0.759061        -1.371246
 H         1.031945         0.933437        -3.530659
 H         2.637882         0.442572         0.528656
