19
Iteration:  3889
 C         3.132733         3.347262        -2.992144
 C         2.108981         2.633245        -2.243202
 C         2.052667         2.701631        -0.731295
 C         0.888208         1.737066        -0.328108
 C         0.870100         0.679889        -1.471194
 C         1.428487         1.346320        -2.705103
 O         0.763154         2.663590        -2.993001
 C         0.970777         1.156351         1.096849
 O         1.638949         0.273302         1.549989
 H         3.037420         4.480829        -2.865274
 H         4.142791         3.050043        -2.695076
 H         2.831768         3.265853        -4.135206
 H         3.039172         2.393554        -0.417218
 H         2.165478         3.692763        -0.281517
 H         0.030719         2.514403        -0.363134
 H         1.504826        -0.114427        -1.004594
 H        -0.190317         0.379855        -1.738770
 H         1.739842         0.851553        -3.697609
 H         0.420550         1.856055         1.795178
