19
Iteration:   172charge 0 multiplicity 1
 C         3.360871         2.395838        -3.303295
 C         2.155775         2.350613        -2.314732
 C         2.440801         2.060172        -0.843697
 C         1.037822         2.044654        -0.267646
 C         0.157851         1.353574        -1.349469
 C         0.786588         1.895105        -2.603186
 O         1.105775         3.298723        -2.518615
 C         1.113939         1.209296         1.078641
 O         1.601146         0.084545         1.276472
 H         4.027483         3.266238        -3.009389
 H         3.894503         1.448219        -3.232317
 H         3.063387         2.395591        -4.306118
 H         2.867460         0.957013        -0.745182
 H         3.336895         2.614266        -0.491671
 H         0.656773         3.042147        -0.006041
 H         0.314525         0.162923        -1.311998
 H        -0.919602         1.673909        -1.246125
 H         0.559017         1.491943        -3.643368
 H         0.829556         1.718320         2.131535
