19
Iteration:  4625
 C         3.295137         3.225403        -2.966950
 C         2.040461         2.732341        -2.258113
 C         1.836539         2.943039        -0.824447
 C         0.866109         1.760127        -0.289015
 C         0.973842         0.659997        -1.454141
 C         1.424224         1.468472        -2.661168
 O         0.700676         2.610973        -2.949405
 C         1.203962         1.226776         1.155833
 O         1.488199         0.050451         1.409312
 H         3.381285         4.289414        -3.231428
 H         4.176927         3.130050        -2.319238
 H         3.410643         2.674942        -4.018835
 H         2.838678         2.973332        -0.445100
 H         1.429713         3.869338        -0.379342
 H        -0.155081         2.041903        -0.091918
 H         1.689499        -0.128024        -1.041797
 H         0.000331         0.128219        -1.709407
 H         1.856468         0.870781        -3.506746
 H         1.234360         1.955190         1.973616
