19
Iteration:  1468charge 0 multiplicity 1
 C         3.445733         2.487610        -2.991933
 C         2.041636         2.440744        -2.228378
 C         2.061312         2.409629        -0.677760
 C         0.845115         1.604724        -0.252046
 C         0.056308         1.199956        -1.586555
 C         0.900769         1.706820        -2.695731
 O         1.035778         3.261524        -2.860039
 C         1.552818         0.660020         0.662524
 O         1.794615         0.760966         1.807575
 H         3.738173         3.480899        -3.336464
 H         4.241874         1.967147        -2.447280
 H         3.456632         2.069872        -4.012277
 H         3.014657         2.009685        -0.287289
 H         2.000453         3.544515        -0.277093
 H         0.151181         2.118206         0.453189
 H        -0.096994         0.131811        -1.706219
 H        -0.923860         1.625736        -1.572424
 H         0.865349         1.389222        -3.767592
 H         2.009509        -0.183245         0.065891
