19
Iteration:  2325
 C         3.381601         2.648399        -2.959014
 C         2.092750         2.472994        -2.257494
 C         2.086629         2.850884        -0.856957
 C         1.062084         1.849249        -0.223619
 C         0.243975         1.166124        -1.351825
 C         0.982897         1.521235        -2.520036
 O         0.927854         2.948213        -2.872504
 C         1.602181         0.720941         0.537055
 O         1.447052         0.449447         1.670514
 H         3.713740         3.663931        -2.718268
 H         3.963321         1.741200        -2.516088
 H         3.360657         2.606878        -4.123255
 H         2.991369         2.988152        -0.330151
 H         1.580449         3.814063        -0.801841
 H         0.408270         2.246188         0.508868
 H         0.333603         0.043168        -1.259061
 H        -0.768808         1.342146        -1.503346
 H         1.153470         0.863832        -3.358654
 H         2.415928         0.179014        -0.056567
