19
Iteration:  4242charge 0 multiplicity 1
 C         3.120361         3.483601        -3.123338
 C         2.171207         2.609506        -2.270263
 C         2.108559         2.668164        -0.773283
 C         0.900818         1.763709        -0.325146
 C         0.897847         0.674452        -1.366604
 C         1.435194         1.341673        -2.665376
 O         0.795811         2.614091        -2.899001
 C         1.002392         1.255634         1.136707
 O         1.465836         0.149227         1.460262
 H         2.668538         4.500460        -3.023112
 H         4.124812         3.392805        -2.760327
 H         3.088747         3.282294        -4.288064
 H         3.062256         2.377560        -0.312141
 H         2.102850         3.640932        -0.342153
 H         0.103492         2.587564        -0.317814
 H         1.541239        -0.061872        -1.011442
 H        -0.157841         0.458275        -1.645206
 H         1.715097         0.766284        -3.572087
 H         0.504922         1.858026         1.957479
