19
Iteration:  3903
 C         3.128098         3.434869        -2.971903
 C         2.068634         2.604258        -2.304507
 C         2.059827         2.690404        -0.746188
 C         0.878942         1.773885        -0.331680
 C         0.778020         0.741084        -1.467714
 C         1.471669         1.360787        -2.635682
 O         0.804455         2.558321        -2.983900
 C         1.058261         1.240153         1.139663
 O         1.619965         0.223935         1.481884
 H         3.185959         4.411409        -2.451668
 H         4.164611         3.033241        -2.822450
 H         3.079613         3.428439        -4.177340
 H         2.989361         2.371429        -0.312730
 H         1.781524         3.666980        -0.451082
 H        -0.054355         2.263958        -0.363879
 H         1.277226        -0.276770        -1.336333
 H        -0.309427         0.411424        -1.696639
 H         1.767999         0.657660        -3.390431
 H         0.586775         1.953626         1.866416
