19
Iteration:  1820
 C         3.225361         2.905563        -3.333705
 C         2.113744         2.474483        -2.451499
 C         2.455160         2.240347        -0.972047
 C         1.166523         1.687130        -0.301345
 C         0.633352         0.879784        -1.480425
 C         0.920608         1.741678        -2.782944
 O         0.826958         3.206281        -2.561346
 C         1.514545         0.731731         0.937164
 O         0.989603         0.714439         2.039876
 H         3.385562         3.957279        -3.101352
 H         4.196225         2.334299        -3.069472
 H         3.015242         2.850600        -4.460730
 H         3.142125         1.429765        -1.046448
 H         2.912800         3.047043        -0.329291
 H         0.436424         2.491125         0.081942
 H         1.265434        -0.101197        -1.545562
 H        -0.426641         0.604518        -1.383042
 H         0.843339         1.336788        -3.833552
 H         2.366629         0.017202         0.698757
