19
Iteration:  4597
 C         3.202649         3.263666        -3.019199
 C         1.998938         2.706030        -2.245661
 C         1.960090         2.812938        -0.744407
 C         1.016566         1.652463        -0.396894
 C         1.071639         0.564888        -1.494071
 C         1.393889         1.426344        -2.707174
 O         0.696869         2.750380        -2.881493
 C         1.088404         1.209288         1.047309
 O         1.414023         0.181298         1.569297
 H         3.216166         4.379536        -3.067526
 H         4.175350         3.118078        -2.493856
 H         3.231747         3.024310        -4.001292
 H         3.055161         2.774727        -0.483063
 H         1.647489         3.658117        -0.134458
 H        -0.047387         2.045546        -0.365511
 H         1.926114        -0.027925        -1.234381
 H         0.173038        -0.036484        -1.559532
 H         1.676577         0.936709        -3.652876
 H         0.951333         2.177230         1.727972
