19
Iteration:  3989
 C         3.364280         3.138875        -2.917772
 C         2.033762         2.743757        -2.299485
 C         1.615945         3.055546        -0.817780
 C         0.936832         1.797291        -0.203331
 C         0.869836         0.752111        -1.367839
 C         1.463832         1.433789        -2.583233
 O         0.747841         2.616230        -3.066694
 C         1.347710         1.176295         1.057966
 O         1.514677        -0.008279         1.403227
 H         3.292987         4.142199        -3.302933
 H         4.097647         2.799906        -2.266847
 H         3.370589         2.475110        -3.927707
 H         2.559733         3.302186        -0.320659
 H         1.010068         3.902482        -0.891167
 H        -0.139569         1.993675         0.089023
 H         1.610780        -0.068644        -1.131765
 H        -0.169268         0.253580        -1.525238
 H         1.890844         0.969241        -3.464099
 H         1.266298         1.912948         1.945222
