19
Iteration:  3962charge 0 multiplicity 1
 C         3.252825         3.190962        -2.883826
 C         2.049521         2.684093        -2.242941
 C         1.710686         2.992333        -0.730740
 C         0.850070         1.853303        -0.276975
 C         0.883293         0.651133        -1.370063
 C         1.462752         1.297530        -2.567476
 O         0.788817         2.579581        -2.987040
 C         1.350948         1.270097         1.054004
 O         1.494809         0.110528         1.245554
 H         3.379685         4.281739        -2.889220
 H         4.149190         2.555893        -2.580843
 H         3.073668         3.087101        -3.887735
 H         2.710468         3.110509        -0.150489
 H         1.275389         4.092331        -0.726466
 H        -0.235174         2.056385        -0.306078
 H         1.642323        -0.078678        -1.145674
 H        -0.072695         0.255893        -1.543530
 H         1.751527         0.861383        -3.532469
 H         1.639857         2.041259         1.852804
