19
Iteration:  2143charge 0 multiplicity 1
 C         3.463240         2.621394        -2.978354
 C         2.126673         2.408693        -2.273284
 C         1.935053         2.893040        -0.733402
 C         1.018860         1.784868        -0.158500
 C         0.129307         1.227983        -1.386326
 C         0.958323         1.510422        -2.653124
 O         0.940242         2.943620        -2.939787
 C         1.808978         0.722250         0.548543
 O         1.462496         0.454622         1.737797
 H         3.881638         3.561276        -2.622645
 H         4.140294         1.941488        -2.596216
 H         3.484756         2.669890        -4.123019
 H         3.006301         2.699619        -0.288870
 H         1.770765         3.971072        -0.632835
 H         0.269029         2.144035         0.524463
 H        -0.232775         0.203078        -1.353270
 H        -0.867505         1.809400        -1.519157
 H         0.752327         1.007700        -3.535669
 H         2.644584         0.200770         0.019340
