19
Iteration:   164
 C         3.330742         2.424073        -3.326781
 C         2.180328         2.395405        -2.325423
 C         2.475015         2.064922        -0.863764
 C         1.067123         1.998260        -0.169224
 C         0.147769         1.298498        -1.352308
 C         0.761464         1.860043        -2.633970
 O         1.169236         3.319547        -2.572619
 C         1.150245         1.226711         1.189666
 O         1.520559         0.068434         1.268986
 H         3.949396         3.320748        -3.227935
 H         3.991925         1.565831        -3.271102
 H         2.867695         2.485807        -4.376042
 H         2.841317         1.082602        -0.945793
 H         3.201995         2.722062        -0.338346
 H         0.635666         3.003130        -0.128692
 H         0.210082         0.193257        -1.376591
 H        -0.895469         1.565589        -1.145509
 H         0.618307         1.471156        -3.586761
 H         0.777400         1.778166         2.063372
