19
Iteration:   881charge 0 multiplicity 1
 C         3.408395         2.188347        -3.029279
 C         2.197385         2.268910        -2.167006
 C         2.139512         2.828082        -0.774363
 C         0.921087         1.996145        -0.181713
 C        -0.021659         1.678471        -1.286129
 C         0.848249         1.695689        -2.482042
 O         1.094203         3.068866        -2.882315
 C         1.508111         0.644789         0.417156
 O         1.694153         0.294353         1.570679
 H         3.763140         3.251671        -3.034707
 H         4.315695         1.583432        -2.638521
 H         3.066182         1.884487        -4.013535
 H         3.094545         2.691316        -0.103685
 H         2.132264         3.878876        -0.904720
 H         0.404388         2.353715         0.720589
 H        -0.308717         0.577507        -1.126886
 H        -0.936065         2.318323        -1.326995
 H         0.848796         0.950535        -3.253435
 H         1.583506        -0.295938        -0.267394
