19
Iteration:   941
 C         3.377903         2.123488        -2.848381
 C         2.071425         2.504422        -2.279507
 C         2.225317         2.843012        -0.704260
 C         1.051385         2.000527        -0.134279
 C        -0.055318         1.649248        -1.311142
 C         0.874660         1.731512        -2.624693
 O         0.991728         3.027041        -3.055586
 C         1.707401         0.714372         0.515998
 O         1.561718         0.148045         1.621535
 H         4.167655         2.882967        -2.843766
 H         3.584807         1.250259        -2.359497
 H         3.274196         1.870540        -3.946426
 H         3.141795         2.410450        -0.342721
 H         2.075209         3.957565        -0.753376
 H         0.663025         2.345450         0.866609
 H        -0.554150         0.735727        -1.117419
 H        -0.783910         2.420730        -1.172039
 H         0.753529         0.899912        -3.376019
 H         2.371181         0.235163        -0.357002
