19
Iteration:  4724
 C         3.310882         3.104836        -2.666143
 C         2.027034         2.611876        -2.149482
 C         1.468682         3.091303        -0.704839
 C         0.685166         1.833559        -0.136817
 C         0.512827         0.863265        -1.373742
 C         1.403054         1.311145        -2.587064
 O         0.992814         2.508621        -3.265902
 C         1.513780         1.248760         1.000196
 O         1.852269         0.080903         1.131175
 H         3.236988         4.196221        -2.635785
 H         4.220990         2.796450        -2.093927
 H         3.700474         2.688148        -3.626806
 H         2.267208         3.423203        -0.107440
 H         0.874819         3.922451        -0.921481
 H        -0.223873         2.291990         0.228793
 H         0.809636        -0.118279        -1.166375
 H        -0.555776         0.767659        -1.621893
 H         1.758692         0.494428        -3.303462
 H         1.923318         1.905186         1.812790
