19
Iteration:  1553charge 0 multiplicity 1
 C         3.437022         2.620695        -3.043031
 C         2.092097         2.469286        -2.251236
 C         2.033306         2.747706        -0.710925
 C         0.893734         1.796899        -0.116910
 C         0.130358         1.378412        -1.357171
 C         0.973894         1.587432        -2.627599
 O         0.999547         2.975657        -3.114071
 C         1.509364         0.640835         0.598655
 O         1.715960         0.407322         1.809958
 H         4.282932         3.221776        -2.516358
 H         3.976867         1.669103        -2.958545
 H         3.184316         2.831555        -4.048210
 H         2.944956         2.528537        -0.150687
 H         1.803656         3.798278        -0.606407
 H         0.160685         2.222800         0.572726
 H        -0.334337         0.386620        -1.358770
 H        -0.640378         2.146528        -1.302697
 H         1.080144         0.905504        -3.509991
 H         1.842692        -0.125397        -0.132101
