19
Iteration:  3051charge 0 multiplicity 1
 C         3.397108         2.678669        -2.826398
 C         2.009887         2.636274        -2.281323
 C         1.892164         2.853607        -0.739954
 C         0.985517         1.757479        -0.216443
 C         0.313771         1.034688        -1.480329
 C         1.079593         1.523783        -2.638368
 O         0.857557         2.825977        -3.045845
 C         1.804302         0.791574         0.591341
 O         1.489422         0.559967         1.769141
 H         3.820246         3.690072        -2.632184
 H         4.012447         2.070069        -2.149719
 H         3.606784         2.481984        -4.003701
 H         2.791893         2.939498        -0.260477
 H         1.343168         3.876380        -0.595245
 H         0.273416         2.155666         0.564488
 H         0.247426        -0.089186        -1.510256
 H        -0.824243         1.101145        -1.520056
 H         1.348259         0.731183        -3.406613
 H         2.615728         0.166636         0.059788
