19
Iteration:  2974
 C         3.405608         2.774268        -2.806139
 C         2.147244         2.471432        -2.122672
 C         1.822804         2.842844        -0.678167
 C         0.826104         1.738671        -0.216663
 C         0.061031         1.145154        -1.515384
 C         1.106987         1.377382        -2.585027
 O         0.976227         2.783563        -3.028274
 C         1.726340         0.831302         0.467724
 O         1.718324         0.612690         1.676794
 H         3.683071         3.816353        -2.958349
 H         4.238509         2.419956        -2.193582
 H         3.526979         2.404341        -3.858818
 H         2.727610         2.762043        -0.228744
 H         1.232049         3.819350        -0.527429
 H         0.075348         2.069293         0.492634
 H        -0.138715         0.049495        -1.416848
 H        -0.884916         1.737141        -1.634733
 H         1.425845         0.626062        -3.269217
 H         2.434485         0.388056        -0.282394
