19
Iteration:  4509charge 0 multiplicity 1
 C         2.965601         3.584140        -3.103503
 C         2.133533         2.614921        -2.337703
 C         2.220436         2.688299        -0.804984
 C         1.071527         1.749683        -0.337831
 C         1.093041         0.599383        -1.418841
 C         1.472341         1.360335        -2.718477
 O         0.745612         2.594233        -2.812119
 C         1.060114         1.294399         1.133981
 O         1.156585         0.120623         1.541948
 H         3.155756         4.545650        -2.484240
 H         4.018259         3.100861        -3.218984
 H         2.477863         3.738218        -4.050212
 H         3.164194         2.198335        -0.514331
 H         2.311615         3.692480        -0.471425
 H         0.221216         2.441187        -0.455816
 H         1.775066        -0.103065        -1.065929
 H         0.209692         0.028788        -1.623934
 H         1.701691         0.691812        -3.590219
 H         0.893775         2.112178         1.868349
