19
Iteration:  2927charge 0 multiplicity 1
 C         3.523034         2.630651        -2.722087
 C         2.085318         2.574826        -2.237169
 C         1.714771         2.953895        -0.758100
 C         0.842666         1.789369        -0.234261
 C         0.197507         1.064952        -1.414748
 C         0.972167         1.494057        -2.627862
 O         0.962601         2.868385        -3.134433
 C         1.649426         0.671728         0.548789
 O         1.820940         0.583555         1.757298
 H         3.858217         3.726126        -2.920920
 H         4.258291         2.239514        -1.943257
 H         3.658667         2.203916        -3.671959
 H         2.496838         3.127596        -0.092731
 H         1.052647         3.785179        -0.766446
 H        -0.078034         2.179703         0.387863
 H         0.512584         0.011314        -1.300012
 H        -0.930539         1.111970        -1.610295
 H         1.194184         0.837068        -3.462477
 H         2.210254         0.004543        -0.219747
