19
Iteration:  1697charge 0 multiplicity 1
 C         3.362905         2.651982        -3.083578
 C         2.123485         2.450444        -2.365799
 C         2.252742         2.719287        -0.803256
 C         1.078404         1.882491        -0.104579
 C         0.202395         1.314013        -1.323019
 C         1.021935         1.542877        -2.561191
 O         0.819447         2.964202        -2.977052
 C         1.772191         0.724090         0.664883
 O         1.251005         0.333456         1.707793
 H         3.699378         3.729748        -2.839326
 H         4.126992         2.046861        -2.563963
 H         3.341627         2.672913        -4.239217
 H         3.167698         2.390198        -0.366137
 H         2.174924         3.834994        -0.768644
 H         0.500649         2.455603         0.658763
 H        -0.165505         0.267070        -1.071851
 H        -0.722127         1.845316        -1.480742
 H         0.831600         0.919028        -3.361240
 H         2.716574         0.254529         0.282218
