19
Iteration:  4426charge 0 multiplicity 1
 C         3.263082         3.373611        -3.082063
 C         2.037359         2.759338        -2.350209
 C         1.838956         2.963148        -0.830416
 C         0.993930         1.758468        -0.184733
 C         1.003268         0.653179        -1.332051
 C         1.405665         1.372848        -2.601613
 O         0.730245         2.640197        -2.967901
 C         1.516016         1.095993         1.115449
 O         1.059228         0.045209         1.465110
 H         3.025281         4.291023        -3.386480
 H         4.134210         3.325086        -2.585493
 H         3.618477         2.909943        -4.070022
 H         2.889329         2.833079        -0.388424
 H         1.358886         4.051888        -0.740274
 H        -0.036272         2.139836        -0.117838
 H         1.931741        -0.027618        -1.102001
 H         0.010872         0.188629        -1.481838
 H         1.784855         0.761991        -3.430272
 H         2.504361         1.422147         1.554686
