19
Iteration:  1612
 C         3.449052         2.414035        -2.933970
 C         2.080557         2.488046        -2.248123
 C         2.044731         2.774256        -0.783380
 C         0.980439         1.915676        -0.173778
 C         0.114174         1.269274        -1.381333
 C         0.955830         1.625568        -2.592855
 O         0.895213         3.047341        -2.895383
 C         1.697886         0.794317         0.526094
 O         1.536067         0.363472         1.640995
 H         3.802961         3.373613        -3.056925
 H         4.080441         1.845647        -2.238865
 H         3.570982         1.896299        -3.944091
 H         3.056187         2.536808        -0.407511
 H         2.006694         3.922364        -0.775822
 H         0.365014         2.281855         0.681726
 H         0.273847         0.229145        -1.279742
 H        -0.932003         1.451327        -1.365232
 H         1.132702         0.836329        -3.329326
 H         2.442835         0.294565        -0.141618
