19
Iteration:  1791charge 0 multiplicity 1
 C         3.277598         2.712653        -3.318442
 C         2.142171         2.534593        -2.370154
 C         2.357635         2.488778        -0.826219
 C         1.184286         1.683226        -0.310376
 C         0.523120         0.828762        -1.432043
 C         0.905851         1.788465        -2.718734
 O         0.817299         3.205950        -2.651629
 C         1.652544         0.773112         0.865536
 O         1.021334         0.616082         1.893278
 H         3.742147         3.719721        -3.325072
 H         4.056989         2.011549        -3.024118
 H         2.986821         2.617060        -4.323145
 H         3.257393         1.777117        -0.748170
 H         2.413074         3.344973        -0.179416
 H         0.439791         2.343594         0.086751
 H         0.886064        -0.145415        -1.591675
 H        -0.584300         0.663456        -1.269819
 H         0.912122         1.339862        -3.796634
 H         2.510894         0.088032         0.673238
