19
Iteration:   609
 C         3.135906         2.811822        -3.547737
 C         2.191157         2.381325        -2.425637
 C         2.710825         1.846657        -1.155079
 C         1.373522         1.529968        -0.362671
 C         0.264395         1.092905        -1.404182
 C         0.821432         1.859078        -2.653201
 O         1.111249         3.262932        -2.263760
 C         1.501255         0.674085         0.968129
 O         0.836466         1.020982         1.945290
 H         3.962464         3.367016        -3.153622
 H         3.485233         2.004913        -4.059611
 H         2.532374         3.368415        -4.357706
 H         3.310130         0.991200        -1.382772
 H         3.056326         2.577031        -0.503098
 H         1.180190         2.522634        -0.006456
 H         0.132165        -0.006822        -1.678518
 H        -0.717666         1.385826        -1.060375
 H         0.421526         1.823371        -3.681719
 H         2.059550        -0.291779         1.003358
