19
Iteration:  3405charge 0 multiplicity 1
 C         3.190237         3.073038        -3.241904
 C         2.191712         2.597680        -2.258069
 C         2.115338         2.639682        -0.761854
 C         1.038842         1.612238        -0.302878
 C         0.655747         0.796034        -1.504388
 C         1.200852         1.507809        -2.669976
 O         0.790314         2.885918        -2.896692
 C         1.509496         0.735737         0.833813
 O         1.196724         0.750391         1.984924
 H         3.337363         4.169105        -3.055717
 H         4.186050         2.500657        -2.966823
 H         2.844378         2.901728        -4.228077
 H         3.209803         2.183911        -0.425932
 H         1.894633         3.777436        -0.469443
 H         0.209797         2.206544        -0.047864
 H         1.045253        -0.238567        -1.572599
 H        -0.405259         0.522087        -1.575953
 H         1.288234         0.901322        -3.615905
 H         2.335010        -0.034964         0.450604
