19
Iteration:  2348charge 0 multiplicity 1
 C         3.450165         2.722800        -3.087508
 C         2.144617         2.455851        -2.225519
 C         2.050018         2.764602        -0.731890
 C         0.912149         1.891250        -0.152629
 C         0.243039         1.191372        -1.386020
 C         1.015419         1.525447        -2.651024
 O         0.896930         2.923988        -2.929114
 C         1.734017         0.820008         0.612488
 O         1.419736         0.371442         1.753173
 H         3.726314         3.806735        -3.187505
 H         4.218532         1.963665        -2.742901
 H         3.115881         2.397976        -4.187429
 H         2.949653         2.443594        -0.236477
 H         2.068976         3.787297        -0.530391
 H         0.182990         2.227165         0.519005
 H         0.074496         0.118575        -1.162371
 H        -0.802614         1.490213        -1.626212
 H         0.920600         1.008950        -3.562909
 H         2.462121         0.180962         0.028723
