19
Iteration:   374charge 0 multiplicity 1
 C         3.234245         2.066031        -3.387588
 C         2.156010         2.305195        -2.378081
 C         2.404925         2.461118        -0.845040
 C         1.192443         1.909262        -0.028502
 C         0.152122         1.723774        -1.121116
 C         0.726075         1.978159        -2.542801
 O         1.205294         3.389980        -2.774045
 C         1.374117         0.536777         0.538261
 O         1.400061         0.298778         1.727487
 H         4.061443         2.641251        -3.088690
 H         3.561800         0.993843        -3.233050
 H         2.986962         2.143245        -4.413660
 H         3.340333         1.988348        -0.486153
 H         2.279052         3.552343        -0.728873
 H         0.832455         2.600535         0.765435
 H        -0.056884         0.552942        -1.008266
 H        -0.867748         2.207027        -1.033373
 H         0.383934         1.416258        -3.445748
 H         1.500988        -0.254760        -0.368651
