19
Iteration:  2579
 C         2.999362         3.218516        -3.472074
 C         2.210294         2.555184        -2.444027
 C         2.660514         2.258455        -1.048150
 C         1.391380         1.487057        -0.340074
 C         0.735626         0.693059        -1.428716
 C         1.042483         1.590818        -2.652949
 O         0.863116         3.071738        -2.468433
 C         1.524911         0.765657         1.107172
 O         0.565933         0.862954         1.896701
 H         2.731358         4.323478        -3.414311
 H         4.084114         2.948564        -3.565405
 H         2.646429         3.074199        -4.498722
 H         3.617909         1.531710        -1.201404
 H         3.029972         3.268988        -0.564456
 H         0.760299         2.411941        -0.017234
 H         1.353241        -0.232734        -1.582129
 H        -0.360463         0.297175        -1.213227
 H         0.692973         1.185290        -3.659418
 H         2.354017         0.032926         1.262477
