19
Iteration:  4740charge 0 multiplicity 1
 C         3.412981         3.035038        -2.589267
 C         1.996965         2.597547        -2.154003
 C         1.388266         3.048837        -0.890680
 C         0.738407         1.809616        -0.226905
 C         0.506796         0.842802        -1.327765
 C         1.296503         1.349027        -2.470903
 O         0.994829         2.600077        -3.165266
 C         1.532012         1.255859         0.930145
 O         1.901534         0.093758         1.098455
 H         3.589785         4.103855        -2.801907
 H         4.145471         2.767985        -1.849108
 H         3.604589         2.449188        -3.507249
 H         2.115140         3.609312        -0.188709
 H         0.614822         3.917434        -1.030660
 H        -0.257391         2.051099         0.254428
 H         1.026719        -0.176392        -0.954499
 H        -0.553320         0.633592        -1.627691
 H         1.876281         0.740517        -3.153539
 H         1.626175         2.116742         1.673769
