19
Iteration:  3648
 C         3.378635         2.997247        -2.624314
 C         2.060553         2.536639        -2.171366
 C         1.681901         2.701431        -0.683017
 C         0.726434         1.622024        -0.306371
 C         0.402587         0.766534        -1.626519
 C         1.251947         1.415482        -2.693968
 O         0.909100         2.833368        -3.083907
 C         1.170259         0.757493         0.816727
 O         2.180423         0.921957         1.505891
 H         3.516356         4.097861        -2.594880
 H         4.148385         2.531618        -2.001320
 H         3.442253         2.600295        -3.574193
 H         2.690533         2.654008        -0.073030
 H         1.437706         3.711705        -0.434723
 H        -0.189078         1.999895         0.079162
 H         0.614278        -0.345076        -1.485681
 H        -0.656090         0.883176        -1.948573
 H         1.599342         0.788644        -3.453751
 H         0.497117         0.048475         1.209452
