19
Iteration:   874
 C         3.380306         2.182356        -3.011569
 C         2.166061         2.298607        -2.176131
 C         2.178634         2.775750        -0.745055
 C         0.924702         2.012683        -0.135685
 C        -0.026235         1.643856        -1.285630
 C         0.920901         1.685012        -2.533138
 O         1.072271         3.075110        -2.888610
 C         1.486732         0.648800         0.424433
 O         1.721091         0.307115         1.570144
 H         3.766640         3.178112        -3.259638
 H         4.077346         1.608858        -2.530873
 H         3.250398         1.887957        -4.143033
 H         2.803536         2.384559         0.051229
 H         2.111567         3.898589        -0.668185
 H         0.407298         2.694015         0.611364
 H        -0.358501         0.644077        -1.193607
 H        -0.860500         2.314559        -1.415815
 H         0.743564         0.957842        -3.338622
 H         1.585213        -0.040397        -0.437499
