19
Iteration:  2848
 C         3.385202         2.816820        -2.723232
 C         2.080434         2.437635        -2.225530
 C         1.866104         2.776133        -0.768229
 C         0.804478         1.771376        -0.241490
 C         0.180785         1.079030        -1.474585
 C         1.043299         1.425972        -2.633736
 O         0.981459         2.819566        -2.997290
 C         1.669898         0.798827         0.505310
 O         1.747979         0.675442         1.715098
 H         3.837956         3.669981        -2.209912
 H         4.102698         2.006647        -2.377462
 H         3.654063         2.677154        -3.846108
 H         2.610300         2.707645         0.061024
 H         1.680622         3.776382        -0.725958
 H        -0.013324         2.260775         0.442962
 H         0.349128        -0.039684        -1.400396
 H        -0.848619         1.378162        -1.782034
 H         0.908125         0.737787        -3.643223
 H         2.271044         0.246469        -0.243058
