19
Iteration:   270
 C         3.270586         2.045351        -3.234508
 C         2.201106         2.372729        -2.291643
 C         2.283109         2.363915        -0.830525
 C         1.115771         1.813083        -0.259763
 C        -0.033681         1.647912        -1.310125
 C         0.821755         2.009649        -2.575610
 O         1.205308         3.393192        -2.668108
 C         1.050311         0.633197         0.728946
 O         1.909958         0.349779         1.551931
 H         4.210484         2.715517        -3.198333
 H         3.588903         1.021214        -2.930840
 H         2.888473         2.114720        -4.229728
 H         3.144576         1.648792        -0.384245
 H         2.518957         3.362177        -0.387915
 H         0.676816         2.593923         0.394972
 H        -0.622847         0.676073        -1.321683
 H        -0.819558         2.376017        -1.048368
 H         0.632632         1.480532        -3.577329
 H         0.037127         0.117381         0.847162
