19
Iteration:  2045
 C         3.336070         2.747570        -3.090822
 C         2.177389         2.536437        -2.295631
 C         2.228007         2.619299        -0.786993
 C         1.114290         1.713996        -0.278844
 C         0.197129         1.088664        -1.527422
 C         0.981281         1.595787        -2.641985
 O         0.869686         2.958333        -2.819115
 C         1.701425         0.707892         0.690430
 O         1.294834         0.592070         1.875973
 H         3.522715         3.825192        -3.015935
 H         4.157744         2.224945        -2.700289
 H         3.171529         2.620299        -4.192541
 H         3.157485         2.458979        -0.376959
 H         1.970752         3.624036        -0.501931
 H         0.541975         2.351395         0.374974
 H         0.102157         0.042164        -1.486196
 H        -0.873765         1.432821        -1.539921
 H         0.877658         1.050324        -3.543562
 H         2.485375         0.057575         0.282612
