19
Iteration:  3763
 C         3.203579         3.343534        -2.870664
 C         2.138266         2.564508        -2.209354
 C         1.995806         2.744838        -0.735561
 C         0.802812         1.766293        -0.305021
 C         0.597302         0.698543        -1.522468
 C         1.392434         1.313869        -2.634733
 O         0.859042         2.609310        -3.031350
 C         0.909074         1.077843         1.059065
 O         1.959090         0.468912         1.404633
 H         3.173897         4.206606        -2.267233
 H         4.256098         3.027839        -2.690804
 H         3.113566         3.443224        -3.926481
 H         2.933455         2.409639        -0.050403
 H         1.614872         3.752880        -0.272820
 H        -0.070196         2.479646        -0.175789
 H         0.796478        -0.333983        -1.348068
 H        -0.453974         0.648482        -1.791432
 H         1.761391         0.588438        -3.409321
 H        -0.089580         1.004592         1.592663
