19
Iteration:  3841charge 0 multiplicity 1
 C         3.208246         3.190954        -3.069770
 C         2.115443         2.636625        -2.188941
 C         2.054265         2.659903        -0.745961
 C         0.832007         1.669577        -0.460291
 C         1.059644         0.551240        -1.506796
 C         1.310607         1.411633        -2.742249
 O         0.697327         2.785100        -2.626389
 C         0.874582         1.223729         0.948197
 O         1.686705         0.427974         1.481000
 H         3.010381         4.250520        -3.284565
 H         4.090495         3.250630        -2.392372
 H         3.330451         2.716766        -3.928076
 H         2.910197         2.302525        -0.046649
 H         2.082062         3.735676        -0.312556
 H        -0.160162         2.232567        -0.538458
 H         1.965163         0.020843        -1.388406
 H         0.235653        -0.057387        -1.445442
 H         1.514685         1.047346        -3.704336
 H        -0.003665         1.562615         1.579872
