19
Iteration:  4868charge 0 multiplicity 1
 C         3.395949         2.953695        -2.444669
 C         2.017056         2.551241        -2.034249
 C         1.442844         3.094623        -0.684353
 C         0.493576         1.930485        -0.116117
 C         0.283359         0.953042        -1.344024
 C         1.401792         1.237228        -2.257100
 O         1.086553         2.347578        -3.239464
 C         1.366969         1.200584         0.826870
 O         2.223047         0.396832         0.551002
 H         3.481315         4.075201        -2.638325
 H         4.246710         2.597362        -1.695479
 H         3.674341         2.463433        -3.327828
 H         2.229848         3.394118         0.116538
 H         0.679449         3.877837        -0.789807
 H        -0.426279         2.267312         0.330315
 H         0.343795         0.004294        -0.979350
 H        -0.712228         1.046531        -1.759232
 H         2.082634         0.378725        -2.573965
 H         1.234352         1.518164         1.947539
