19
Iteration:  3389
 C         3.216762         3.051890        -3.246990
 C         2.078002         2.632366        -2.317945
 C         2.229985         2.571076        -0.761838
 C         1.049581         1.623593        -0.316231
 C         0.696603         0.704881        -1.544490
 C         1.183845         1.489559        -2.732704
 O         0.768155         2.918617        -2.734302
 C         1.607031         0.812189         0.858406
 O         1.048952         0.761631         1.935837
 H         3.318504         4.127561        -3.279512
 H         4.124702         2.587616        -3.143790
 H         3.032198         2.692624        -4.308657
 H         3.230994         2.370589        -0.541162
 H         2.131610         3.501759        -0.265918
 H         0.152442         2.132619         0.206474
 H         1.249859        -0.242099        -1.391168
 H        -0.381670         0.459354        -1.520018
 H         1.352067         1.157630        -3.743897
 H         2.530298         0.317666         0.546743
