19
Iteration:  1864charge 0 multiplicity 1
 C         3.020485         3.143485        -3.328362
 C         2.202956         2.434735        -2.346926
 C         2.633953         2.081665        -0.922372
 C         1.367593         1.527631        -0.325206
 C         0.487754         0.891338        -1.523918
 C         1.072458         1.637050        -2.725965
 O         0.844186         3.033792        -2.410634
 C         1.431755         0.644833         0.869550
 O         0.944438         1.054666         1.837680
 H         3.285193         4.131825        -3.000608
 H         4.055202         2.676196        -3.546521
 H         2.453502         3.451532        -4.241990
 H         3.311896         1.289184        -0.863848
 H         2.941951         3.031854        -0.452001
 H         0.795244         2.449993         0.005276
 H         0.497767        -0.257289        -1.657867
 H        -0.586544         1.107415        -1.329312
 H         0.856645         1.413212        -3.810041
 H         1.733522        -0.414497         0.753011
