19
Iteration:   771
 C         3.293226         2.263418        -3.152969
 C         2.162037         2.445776        -2.199952
 C         2.252694         2.541037        -0.735345
 C         0.953752         1.840632        -0.165151
 C         0.135113         1.423298        -1.393122
 C         0.887148         1.844400        -2.621555
 O         1.058465         3.193399        -2.885450
 C         1.391844         0.585917         0.588329
 O         1.677011         0.555371         1.761292
 H         4.202619         2.732751        -2.813726
 H         3.576062         1.202220        -3.167848
 H         3.035137         2.413815        -4.165454
 H         3.057289         1.806742        -0.459890
 H         2.480205         3.478435        -0.270521
 H         0.361487         2.361877         0.542662
 H        -0.162415         0.373560        -1.341943
 H        -0.831263         1.948337        -1.464073
 H         0.725950         1.315006        -3.588313
 H         1.467518        -0.317228        -0.094225
