19
Iteration:  1417charge 0 multiplicity 1
 C         3.358003         2.597111        -3.176319
 C         2.161942         2.448548        -2.323415
 C         2.325939         2.471416        -0.832340
 C         0.945677         1.744689        -0.261527
 C         0.269872         1.084564        -1.468251
 C         0.911693         1.758936        -2.723678
 O         0.940805         3.159315        -2.688898
 C         1.260604         0.588484         0.675157
 O         1.619830         0.719985         1.904353
 H         3.692841         3.680641        -3.226892
 H         4.242127         2.096936        -2.663190
 H         3.302970         2.363061        -4.315846
 H         3.236224         2.061286        -0.406436
 H         2.259003         3.466147        -0.454970
 H         0.363422         2.489737         0.345853
 H         0.478017        -0.027452        -1.356116
 H        -0.838501         1.278776        -1.551569
 H         0.847256         1.344744        -3.737748
 H         1.222786        -0.522577         0.283939
