19
Iteration:   764charge 0 multiplicity 1
 C         3.293807         2.250814        -3.108295
 C         2.156680         2.513562        -2.254941
 C         2.226335         2.473442        -0.780723
 C         0.979185         1.876330        -0.170438
 C         0.144923         1.398981        -1.398229
 C         0.886361         1.760534        -2.602892
 O         1.058731         3.234990        -2.836255
 C         1.363932         0.612096         0.572739
 O         1.667469         0.555262         1.767005
 H         4.234815         2.790936        -2.740135
 H         3.597173         1.217358        -3.183264
 H         2.818902         2.547286        -4.253117
 H         3.019689         1.773475        -0.491040
 H         2.766928         3.376938        -0.405690
 H         0.412637         2.536961         0.560622
 H        -0.115669         0.357073        -1.442225
 H        -0.819196         1.891164        -1.446945
 H         0.904833         1.185423        -3.482672
 H         1.532757        -0.319879        -0.059558
