19
Iteration:  1968charge 0 multiplicity 1
 C         3.175016         3.003919        -3.375178
 C         2.189008         2.553938        -2.350533
 C         2.413675         2.331077        -0.862701
 C         1.118230         1.535127        -0.327231
 C         0.503250         0.861643        -1.574675
 C         0.983901         1.692797        -2.714970
 O         0.885203         3.056947        -2.494819
 C         1.522016         0.644192         0.803138
 O         1.077026         0.887440         1.973384
 H         3.841167         3.802654        -2.993753
 H         3.802462         2.137266        -3.224906
 H         3.009815         2.981179        -4.478403
 H         3.325467         1.868665        -0.583167
 H         2.478263         3.278006        -0.361724
 H         0.515647         2.300149         0.084446
 H         0.884291        -0.113006        -1.682421
 H        -0.629139         0.903811        -1.418433
 H         0.976486         1.214377        -3.736486
 H         2.100349        -0.328283         0.612288
