19
Iteration:  1783charge 0 multiplicity 1
 C         3.299154         2.662486        -3.314081
 C         2.085691         2.556397        -2.364024
 C         2.312045         2.561949        -0.861495
 C         1.160164         1.670625        -0.253567
 C         0.516143         0.903645        -1.444817
 C         0.959469         1.686596        -2.711545
 O         0.831552         3.210420        -2.605753
 C         1.657547         0.713426         0.831483
 O         1.031357         0.611983         1.839012
 H         3.711820         3.696754        -3.111488
 H         4.089561         1.954515        -3.281749
 H         2.907792         2.492642        -4.322758
 H         3.288346         2.087027        -0.541120
 H         2.471298         3.527421        -0.346604
 H         0.433924         2.351964         0.140491
 H         0.803437        -0.237768        -1.491876
 H        -0.567836         1.051311        -1.288355
 H         1.086660         1.273407        -3.648085
 H         2.642103         0.205794         0.617391
