19
Iteration:  2663
 C         3.223814         3.023140        -3.390840
 C         2.179664         2.513771        -2.371539
 C         2.327642         2.496424        -0.898171
 C         1.135134         1.628998        -0.191682
 C         0.644503         0.813679        -1.559757
 C         1.040675         1.631268        -2.757344
 O         0.834529         2.985765        -2.708883
 C         1.495260         0.715032         0.935023
 O         1.023171         0.746817         2.073702
 H         3.657716         3.790317        -2.816931
 H         4.044470         2.356430        -3.586197
 H         2.639769         3.383650        -4.278621
 H         3.203517         1.897819        -0.704040
 H         2.312238         3.619534        -0.499546
 H         0.324677         2.270438         0.263081
 H         1.169381        -0.145253        -1.713467
 H        -0.439726         0.736797        -1.579758
 H         1.091979         1.217839        -3.843062
 H         2.272769        -0.099350         0.781501
