19
Iteration:   751
 C         3.366268         2.293107        -3.135609
 C         2.084431         2.470738        -2.301316
 C         2.349050         2.373000        -0.820187
 C         0.953765         1.893269        -0.192575
 C         0.083122         1.385248        -1.388304
 C         0.930871         1.700176        -2.629478
 O         1.005313         3.297112        -2.740725
 C         1.379741         0.680859         0.601831
 O         1.625130         0.557971         1.786801
 H         4.233007         2.945710        -2.786041
 H         3.645627         1.267750        -3.116735
 H         3.228991         2.604920        -4.348173
 H         3.143552         1.601132        -0.793490
 H         2.527516         3.275910        -0.294131
 H         0.516388         2.708735         0.365680
 H         0.033206         0.343168        -1.266026
 H        -0.939465         1.730604        -1.391473
 H         0.865109         1.116287        -3.540811
 H         1.474651        -0.201688        -0.139446
