19
Iteration:  1652charge 0 multiplicity 1
 C         3.374534         2.408792        -3.133217
 C         2.126097         2.456820        -2.264304
 C         1.998012         2.872458        -0.781786
 C         0.947625         1.900461        -0.078047
 C         0.262871         1.293128        -1.324143
 C         0.975224         1.665399        -2.586429
 O         0.966215         3.081225        -2.956586
 C         1.749146         0.718260         0.646940
 O         1.415878         0.282081         1.683131
 H         3.701846         3.404052        -3.593905
 H         4.129651         2.007003        -2.442950
 H         3.280526         1.762146        -4.026282
 H         2.917956         2.812646        -0.222697
 H         1.554684         3.828295        -0.560372
 H         0.326498         2.495294         0.578606
 H         0.426025         0.151728        -1.271739
 H        -0.823882         1.350067        -1.393172
 H         1.330704         0.950280        -3.309532
 H         2.415646         0.253646        -0.103487
