19
Iteration:  3911
 C         3.177010         3.447724        -2.949200
 C         2.101668         2.635941        -2.325157
 C         1.993433         2.722148        -0.756040
 C         0.866499         1.736735        -0.283721
 C         0.744394         0.688780        -1.438176
 C         1.440656         1.283185        -2.653316
 O         0.816419         2.540358        -2.967129
 C         1.123463         1.301372         1.133761
 O         1.596130         0.208742         1.421038
 H         3.245123         4.494603        -2.515281
 H         4.154644         3.023104        -2.797304
 H         2.915988         3.630370        -4.085640
 H         2.960347         2.515884        -0.321845
 H         2.012810         3.751633        -0.407890
 H        -0.156148         2.272242        -0.361786
 H         1.232035        -0.264426        -1.135689
 H        -0.357754         0.587404        -1.676525
 H         1.976058         0.799141        -3.536934
 H         0.630867         1.989921         1.852297
