19
Iteration:  3378charge 0 multiplicity 1
 C         3.234913         3.029685        -3.263123
 C         2.076665         2.588134        -2.317856
 C         2.254517         2.566137        -0.817926
 C         1.120908         1.601604        -0.295234
 C         0.759352         0.715259        -1.539963
 C         1.208820         1.493128        -2.777640
 O         0.692197         2.941884        -2.636267
 C         1.628908         0.888330         0.879530
 O         0.977051         0.748373         1.901827
 H         3.320051         4.106149        -3.213450
 H         4.086985         2.726713        -2.800150
 H         2.906625         2.795372        -4.323450
 H         3.123091         1.983906        -0.660266
 H         2.210567         3.548096        -0.446049
 H         0.196681         2.299407        -0.100959
 H         1.323008        -0.244547        -1.549821
 H        -0.311646         0.434304        -1.634567
 H         1.002605         1.021109        -3.747558
 H         2.581402         0.314974         0.858210
