19
Iteration:   800
 C         3.446295         2.222241        -3.151491
 C         2.144942         2.344584        -2.296145
 C         2.095088         2.615439        -0.841693
 C         0.978931         1.794023        -0.158393
 C        -0.017843         1.498986        -1.366994
 C         0.820994         1.850099        -2.595835
 O         1.155117         3.228314        -2.823834
 C         1.444049         0.504047         0.594654
 O         1.731218         0.524503         1.795362
 H         4.124976         3.084586        -2.968812
 H         3.990325         1.220358        -2.870905
 H         3.304816         2.261284        -4.253410
 H         2.977151         2.368327        -0.263887
 H         1.783718         3.702117        -0.735138
 H         0.433443         2.313195         0.660815
 H        -0.456373         0.448084        -1.281518
 H        -0.831309         2.265910        -1.409195
 H         0.512756         1.372990        -3.558209
 H         1.625042        -0.414542        -0.039761
