19
Iteration:  3031charge 0 multiplicity 1
 C         3.501008         2.708951        -2.787393
 C         2.048468         2.600795        -2.247764
 C         1.816493         2.963958        -0.818655
 C         0.958406         1.785327        -0.164290
 C         0.357793         1.084555        -1.366473
 C         1.176964         1.503052        -2.629513
 O         0.758215         2.831880        -3.144304
 C         1.669232         0.654724         0.547113
 O         1.587990         0.539213         1.770014
 H         3.917886         3.675463        -2.639893
 H         4.070126         1.950445        -2.249693
 H         3.368101         2.416385        -3.927758
 H         2.755955         3.038076        -0.260219
 H         1.377420         3.996932        -0.594881
 H         0.151341         2.103758         0.406406
 H         0.135658        -0.028254        -1.188916
 H        -0.724231         1.259587        -1.462137
 H         1.324868         0.691092        -3.461962
 H         2.321886        -0.045619        -0.009469
