19
Iteration:  1153
 C         3.334314         2.454267        -3.307869
 C         2.139785         2.383751        -2.391366
 C         2.324987         2.503756        -0.893754
 C         1.164653         1.799121        -0.212790
 C         0.351172         1.171397        -1.387550
 C         0.824315         1.790385        -2.666539
 O         0.988784         3.285092        -2.666145
 C         1.591143         0.703577         0.735516
 O         1.149644         0.492940         1.896587
 H         4.001237         3.252213        -2.937172
 H         3.866459         1.426962        -2.979185
 H         3.143757         2.467679        -4.369627
 H         3.360421         2.060907        -0.609348
 H         2.227473         3.615147        -0.627361
 H         0.580011         2.507152         0.410793
 H         0.333970         0.072435        -1.528316
 H        -0.719665         1.457686        -1.284299
 H         0.272883         1.491277        -3.557746
 H         2.523465         0.146656         0.327972
