19
Iteration:  3425charge 0 multiplicity 1
 C         3.284624         3.121289        -3.113259
 C         2.092381         2.569127        -2.371510
 C         2.100818         2.695872        -0.796633
 C         0.997538         1.720248        -0.203310
 C         0.551401         0.833572        -1.515454
 C         1.206026         1.434239        -2.811183
 O         0.822050         2.814478        -2.921769
 C         1.458000         0.643035         0.829448
 O         1.359407         0.753131         2.015000
 H         3.517923         4.123444        -2.851759
 H         4.161361         2.507277        -2.851956
 H         2.979739         3.144240        -4.086543
 H         2.957330         2.328289        -0.255673
 H         1.655457         3.732034        -0.524770
 H         0.138516         2.284148         0.209174
 H         0.879157        -0.219597        -1.464028
 H        -0.493426         0.774097        -1.691978
 H         1.575252         0.868945        -3.665343
 H         2.007333        -0.220466         0.509112
