19
Iteration:  4092
 C         3.259321         3.396902        -3.031802
 C         2.063908         2.609090        -2.242534
 C         1.931213         2.883714        -0.701355
 C         0.793464         1.820241        -0.244125
 C         0.808502         0.676818        -1.320610
 C         1.394231         1.331046        -2.542262
 O         0.876301         2.576000        -3.026817
 C         1.097898         1.235570         1.075443
 O         1.602844         0.141178         1.240890
 H         3.263333         4.495498        -2.755552
 H         4.262034         2.876172        -2.744992
 H         2.982157         3.089498        -4.007568
 H         2.882510         2.688937        -0.350173
 H         1.602202         3.911881        -0.530267
 H        -0.178528         2.238327        -0.102523
 H         1.449161        -0.248166        -1.031316
 H        -0.170915         0.191493        -1.505929
 H         1.791446         0.594522        -3.264312
 H         0.848247         1.830022         1.959998
