19
Iteration:  1144charge 0 multiplicity 1
 C         3.353939         2.401867        -3.265524
 C         2.135993         2.446576        -2.440722
 C         2.398034         2.530355        -0.919113
 C         1.097749         1.851917        -0.162480
 C         0.309338         1.176355        -1.356741
 C         0.813978         1.824476        -2.590541
 O         0.970186         3.273676        -2.712571
 C         1.577833         0.722823         0.750446
 O         1.185767         0.421630         1.843662
 H         4.075784         3.212147        -3.093103
 H         3.831108         1.428687        -3.007207
 H         3.222653         2.325826        -4.387097
 H         3.283246         2.140323        -0.314311
 H         2.374209         3.635218        -0.799782
 H         0.294947         2.486996         0.201868
 H         0.473216         0.037292        -1.365198
 H        -0.828953         1.225627        -1.177085
 H         0.658790         1.403290        -3.567810
 H         2.445239         0.150885         0.268074
