19
Iteration:  2449charge 0 multiplicity 1
 C         3.267641         2.820007        -3.281933
 C         2.178409         2.488413        -2.282024
 C         2.345785         2.570565        -0.756726
 C         1.059013         1.812765        -0.294723
 C         0.453112         1.026375        -1.478115
 C         1.075343         1.617419        -2.666271
 O         0.741604         2.997523        -2.776697
 C         1.617010         0.885936         0.801467
 O         1.132176         0.440735         1.865084
 H         3.950923         3.769003        -3.047111
 H         4.025994         1.964805        -3.142621
 H         2.775312         2.682408        -4.286151
 H         3.295178         2.174527        -0.385887
 H         2.280680         3.553403        -0.389559
 H         0.385436         2.625037         0.169800
 H         0.871209         0.002581        -1.433728
 H        -0.659717         0.737686        -1.339109
 H         1.070486         0.928387        -3.562521
 H         2.626365         0.505752         0.539092
