19
Iteration:  2959
 C         3.460861         2.709434        -2.712049
 C         2.031931         2.488009        -2.187857
 C         1.813155         2.868111        -0.743681
 C         0.786797         1.792132        -0.266353
 C         0.168860         1.164342        -1.482588
 C         1.125736         1.425300        -2.587755
 O         0.920558         2.778033        -3.003352
 C         1.759885         0.727563         0.466689
 O         1.744139         0.635820         1.663394
 H         3.429152         3.845818        -2.916335
 H         4.200462         2.380964        -1.899615
 H         3.475272         2.225559        -3.639315
 H         2.677630         2.659736        -0.015965
 H         1.551839         3.874059        -0.705106
 H        -0.010998         2.179053         0.534256
 H        -0.225845         0.174037        -1.287912
 H        -0.808446         1.493901        -1.913001
 H         1.317468         0.819225        -3.497855
 H         2.578615         0.233795        -0.037104
