19
Iteration:   846
 C         3.449221         2.182852        -2.968764
 C         2.116101         2.474458        -2.232186
 C         2.229836         2.598790        -0.749367
 C         0.850844         1.897565        -0.115388
 C        -0.031418         1.614362        -1.289742
 C         0.872656         1.737098        -2.530802
 O         1.027779         3.127699        -2.958786
 C         1.511747         0.656995         0.421904
 O         1.741017         0.437686         1.607173
 H         4.008869         3.096949        -3.260062
 H         4.173367         1.454100        -2.359589
 H         3.236614         1.654628        -3.829233
 H         2.909367         1.869480        -0.349425
 H         2.473326         3.567196        -0.316805
 H         0.339271         2.414439         0.665712
 H        -0.379396         0.504475        -1.303763
 H        -0.966615         2.228697        -1.284807
 H         0.834027         0.926591        -3.299714
 H         1.670337        -0.083545        -0.442119
