19
Iteration:  2746
 C         3.454504         2.869732        -2.965076
 C         2.088863         2.417128        -2.271159
 C         2.042695         2.693805        -0.820372
 C         0.854417         1.775884        -0.329838
 C         0.310302         0.885926        -1.523656
 C         0.999486         1.511432        -2.730488
 O         0.879976         3.001714        -2.894440
 C         1.657125         0.794930         0.735064
 O         1.501659         0.649105         1.926602
 H         3.558341         3.985206        -2.944052
 H         4.325081         2.413305        -2.485533
 H         3.602834         2.638664        -4.048437
 H         2.874439         2.190807        -0.240075
 H         2.147695         3.671557        -0.548311
 H         0.069677         2.181963         0.180318
 H         0.550475        -0.170239        -1.366362
 H        -0.741208         0.832208        -1.630922
 H         0.942446         1.065004        -3.642207
 H         2.248323         0.009901         0.111104
