19
Iteration:  2961charge 0 multiplicity 1
 C         3.461673         2.722101        -2.727057
 C         2.017431         2.488177        -2.184093
 C         1.824786         2.856528        -0.716610
 C         0.777473         1.783622        -0.293534
 C         0.151636         1.171629        -1.486603
 C         1.134783         1.412116        -2.593580
 O         0.932804         2.772940        -2.996656
 C         1.757550         0.731793         0.468338
 O         1.742476         0.634441         1.663764
 H         3.419172         3.852851        -2.892713
 H         4.253819         2.375467        -1.989609
 H         3.484069         2.212981        -3.620702
 H         2.600703         2.749680        -0.083382
 H         1.584947         3.921612        -0.669622
 H         0.043238         2.174998         0.524229
 H        -0.167591         0.158625        -1.266963
 H        -0.854913         1.578412        -1.858723
 H         1.296521         0.792630        -3.380365
 H         2.618064         0.277985        -0.019353
