19
Iteration:  4851
 C         3.405096         2.996859        -2.463194
 C         2.026762         2.542877        -2.092596
 C         1.339958         3.154489        -0.805508
 C         0.546425         1.943054        -0.189836
 C         0.211546         0.971829        -1.341617
 C         1.408429         1.230321        -2.307423
 O         1.145904         2.328269        -3.077598
 C         1.393739         1.154325         0.906892
 O         2.246548         0.333174         0.637932
 H         3.542603         4.060022        -2.556496
 H         4.128291         2.625904        -1.817883
 H         3.477937         2.728520        -3.582637
 H         2.164602         3.188141        -0.038439
 H         0.779525         4.140568        -1.021493
 H        -0.383670         2.264492         0.362264
 H         0.067405        -0.160953        -0.896133
 H        -0.632153         1.329213        -1.979059
 H         1.978136         0.539016        -2.894896
 H         1.225380         1.356876         1.961527
