19
Iteration:  4781charge 0 multiplicity 1
 C         3.407387         2.843366        -2.414729
 C         1.961559         2.623238        -2.061373
 C         1.362266         3.033795        -0.785050
 C         0.617094         1.850849        -0.277269
 C         0.482012         0.856467        -1.394446
 C         1.376614         1.377140        -2.505960
 O         0.922976         2.525695        -3.154191
 C         1.583792         1.353095         0.816444
 O         2.038096         0.215512         0.943607
 H         3.601525         3.912355        -2.590055
 H         3.951280         2.578179        -1.454030
 H         3.674934         2.371049        -3.275702
 H         2.119173         3.256870        -0.147598
 H         0.710069         3.931367        -0.867373
 H        -0.261943         2.209069         0.198145
 H         0.920546        -0.116370        -1.143668
 H        -0.620490         0.767414        -1.564771
 H         1.827397         0.469799        -2.938562
 H         1.806287         2.090879         1.605678
