19
Iteration:  1443charge 0 multiplicity 1
 C         3.412771         2.452895        -3.013989
 C         2.074608         2.531114        -2.266602
 C         2.152263         2.466894        -0.807476
 C         0.929913         1.635253        -0.276715
 C         0.177382         1.175811        -1.534770
 C         0.887717         1.818611        -2.718218
 O         0.943174         3.176483        -2.784141
 C         1.465709         0.531899         0.700175
 O         1.694665         0.793232         1.829187
 H         3.732173         3.580781        -3.368218
 H         4.186018         2.104683        -2.340441
 H         3.485011         1.986941        -3.971641
 H         3.095544         1.884467        -0.573139
 H         2.238617         3.434680        -0.203224
 H         0.301810         2.204904         0.414101
 H         0.142448         0.101599        -1.614579
 H        -0.858157         1.544471        -1.487177
 H         0.998627         1.374265        -3.754115
 H         1.847800        -0.452274         0.223278
