19
Iteration:  1741charge 0 multiplicity 1
 C         3.343481         2.733891        -3.301377
 C         2.118491         2.452323        -2.349038
 C         2.294535         2.686739        -0.812755
 C         1.077970         1.927019        -0.091160
 C         0.351076         1.146927        -1.271476
 C         1.056954         1.530089        -2.575126
 O         0.886970         3.040915        -2.870219
 C         1.558024         0.765774         0.657749
 O         1.170186         0.348831         1.806794
 H         3.925697         3.624500        -2.885304
 H         4.154749         1.970267        -3.426434
 H         2.876924         3.025712        -4.350578
 H         3.241133         2.223927        -0.695542
 H         2.396093         3.773122        -0.527981
 H         0.330030         2.439187         0.576983
 H         0.437095        -0.028008        -1.258367
 H        -0.704485         1.368453        -1.365236
 H         0.945596         0.901985        -3.372204
 H         2.441166         0.160910         0.272976
