19
Iteration:  4617charge 0 multiplicity 1
 C         3.254164         3.217944        -2.982226
 C         2.024944         2.765378        -2.339510
 C         1.852747         2.857815        -0.780958
 C         0.904051         1.690748        -0.299475
 C         1.038554         0.675535        -1.463067
 C         1.447242         1.480270        -2.696821
 O         0.665506         2.646119        -2.907936
 C         1.203007         1.223297         1.173018
 O         1.457722         0.082655         1.463773
 H         3.436569         4.233725        -3.273741
 H         4.059276         3.014641        -2.225413
 H         3.400506         2.738467        -3.865578
 H         2.892579         2.794594        -0.227027
 H         1.558674         4.030208        -0.617127
 H        -0.127521         2.165170        -0.280411
 H         1.818676        -0.182740        -1.237956
 H         0.012460         0.257253        -1.795939
 H         1.860403         0.879825        -3.570892
 H         0.987111         2.058115         1.885983
