19
Iteration:  3857charge 0 multiplicity 1
 C         3.222719         3.282814        -3.081400
 C         2.091021         2.620831        -2.311142
 C         2.073055         2.642800        -0.708172
 C         0.863737         1.643821        -0.376338
 C         1.024107         0.585055        -1.458680
 C         1.345443         1.468146        -2.665211
 O         0.713148         2.773539        -2.735855
 C         0.815699         1.186427         1.038523
 O         1.681497         0.383449         1.485712
 H         3.111004         4.418281        -3.205216
 H         4.265888         3.227847        -2.711166
 H         3.314420         2.569428        -4.055367
 H         3.054181         2.348159        -0.409838
 H         1.829928         3.627984        -0.324717
 H        -0.059157         2.171186        -0.679054
 H         1.855291        -0.092812        -1.063073
 H         0.154071        -0.155931        -1.699309
 H         1.393434         1.030129        -3.721129
 H         0.114247         1.780556         1.647053
