19
Iteration:    64charge 0 multiplicity 1
 C         3.220011         2.596090        -3.459721
 C         2.157283         2.430415        -2.447678
 C         2.579455         2.357248        -0.925904
 C         1.401596         1.960305        -0.130757
 C         0.578503         1.182478        -1.215619
 C         0.941449         1.726009        -2.571323
 O         0.944884         3.233483        -2.574129
 C         1.503922         0.887260         1.028425
 O         0.600504         0.249325         1.479615
 H         3.817286         3.539096        -3.097307
 H         3.968065         1.792061        -3.483304
 H         2.829104         2.916713        -4.379394
 H         3.375183         1.644952        -0.814756
 H         2.902212         3.355274        -0.617040
 H         0.819217         2.837003         0.176344
 H         0.800155         0.142952        -1.077693
 H        -0.518045         1.242565        -1.033033
 H         0.590959         1.243001        -3.586889
 H         2.651920         0.496050         1.129367
