19
Iteration:  4166
 C         3.254887         3.270906        -2.928352
 C         2.037514         2.645997        -2.269293
 C         1.992546         2.640419        -0.760747
 C         0.825047         1.610043        -0.423423
 C         0.992976         0.561309        -1.523890
 C         1.399322         1.417735        -2.788171
 O         0.720398         2.764167        -2.767422
 C         1.017590         1.324957         1.040742
 O         1.605377         0.345683         1.514233
 H         3.230637         4.324160        -2.694139
 H         4.091234         2.790110        -2.570707
 H         3.031693         3.010454        -4.027873
 H         3.022602         2.229186        -0.156922
 H         1.845654         3.653367        -0.362917
 H        -0.156573         2.226769        -0.356391
 H         2.069505         0.146523        -1.353794
 H         0.126195        -0.177732        -1.636340
 H         1.282921         0.886449        -3.737441
 H         0.580509         2.089578         1.804024
