19
Iteration:  1856
 C         3.070576         3.131946        -3.399445
 C         2.200679         2.443326        -2.339765
 C         2.627238         2.112065        -0.921199
 C         1.295575         1.521514        -0.402480
 C         0.508261         0.929245        -1.483026
 C         1.057257         1.641866        -2.703236
 O         0.828474         3.042771        -2.412522
 C         1.401384         0.636643         0.793293
 O         0.943627         1.012986         1.927399
 H         3.269675         4.121458        -2.834337
 H         4.095630         2.654408        -3.467607
 H         2.664012         3.371878        -4.379614
 H         3.489079         1.375665        -1.026303
 H         2.965205         2.950988        -0.307904
 H         0.749373         2.386649        -0.038528
 H         0.673628        -0.147622        -1.420412
 H        -0.603614         1.074438        -1.200468
 H         0.919469         1.236596        -3.845787
 H         2.051328        -0.291678         0.801991
