19
Iteration:  3329charge 0 multiplicity 1
 C         3.032890         3.244393        -3.407463
 C         2.112261         2.529725        -2.427801
 C         2.516077         2.349093        -0.978702
 C         1.300816         1.629013        -0.259835
 C         0.957105         0.688751        -1.423471
 C         1.094546         1.543419        -2.656872
 O         0.739512         2.917322        -2.589975
 C         1.558864         0.920030         1.045325
 O         0.652691         0.721536         1.803653
 H         3.214129         4.283743        -2.970235
 H         4.079530         2.783447        -3.189367
 H         2.539645         3.346329        -4.320166
 H         3.343835         1.646170        -1.094703
 H         2.695986         3.338395        -0.546209
 H         0.536398         2.280517        -0.066441
 H         1.534514        -0.265986        -1.373249
 H        -0.099142         0.458703        -1.246644
 H         1.002767         1.115976        -3.629864
 H         2.551823         0.550177         1.363613
