19
Iteration:  3589charge 0 multiplicity 1
 C         3.350858         3.072553        -2.732971
 C         2.076933         2.481804        -2.202780
 C         1.754997         2.821709        -0.698140
 C         0.798208         1.645796        -0.295311
 C         0.269337         0.918952        -1.647209
 C         1.229251         1.354232        -2.631772
 O         0.984536         2.730634        -2.998839
 C         1.375153         0.559817         0.689731
 O         1.969642         0.957318         1.709093
 H         3.567577         4.145623        -2.474509
 H         4.232069         2.337406        -2.440669
 H         3.343188         3.086214        -3.914463
 H         2.625477         2.807293        -0.102041
 H         1.078852         3.769148        -0.667134
 H        -0.175411         2.119123         0.207332
 H         0.333733        -0.264189        -1.542842
 H        -0.749225         1.165320        -2.004312
 H         1.508534         0.633172        -3.498008
 H         1.310624        -0.450362         0.319532
