19
Iteration:  3201
 C         3.157240         3.072079        -3.349303
 C         2.143602         2.562655        -2.350293
 C         2.401841         2.458173        -0.846113
 C         1.119383         1.643376        -0.288856
 C         0.691832         0.746077        -1.479566
 C         1.134606         1.588299        -2.645255
 O         0.766979         2.954268        -2.692954
 C         1.582406         0.984935         0.937934
 O         0.919691         0.541326         1.858797
 H         3.299679         4.190314        -3.258480
 H         4.065431         2.447488        -3.311773
 H         2.751293         2.812666        -4.287556
 H         3.473094         2.178867        -0.495890
 H         2.359764         3.489190        -0.440076
 H         0.229631         2.386734        -0.100298
 H         1.198093        -0.241019        -1.595067
 H        -0.412037         0.542987        -1.431581
 H         1.158018         1.117903        -3.611487
 H         2.673496         1.085057         1.177146
