19
Iteration:  3838charge 0 multiplicity 1
 C         3.183533         3.188053        -3.058601
 C         2.110036         2.628845        -2.205998
 C         2.026901         2.651096        -0.726923
 C         0.847899         1.696217        -0.461485
 C         1.059144         0.569799        -1.547684
 C         1.297837         1.421516        -2.707768
 O         0.715743         2.771718        -2.625197
 C         0.873141         1.231215         0.961329
 O         1.700224         0.427697         1.477222
 H         3.081489         4.261197        -3.137251
 H         4.040209         3.313514        -2.421632
 H         3.422644         2.550313        -3.989762
 H         2.893382         2.324545        -0.103444
 H         2.073766         3.638615        -0.313546
 H        -0.023106         2.218133        -0.624986
 H         1.997274        -0.010573        -1.360996
 H         0.179170        -0.165483        -1.499457
 H         1.528063         1.053504        -3.703755
 H        -0.053656         1.581799         1.512294
