19
Iteration:  3409charge 0 multiplicity 1
 C         3.217232         3.070235        -3.209446
 C         2.177035         2.579203        -2.255010
 C         2.101572         2.658264        -0.747196
 C         1.013303         1.614038        -0.300414
 C         0.655841         0.829382        -1.520694
 C         1.219105         1.477817        -2.688304
 O         0.785132         2.883850        -2.922509
 C         1.516983         0.728046         0.836508
 O         1.223705         0.745937         2.006735
 H         3.287408         4.176553        -2.956376
 H         4.204082         2.552526        -3.110530
 H         2.886227         2.925608        -4.339733
 H         3.170765         2.388968        -0.519809
 H         1.974954         3.655130        -0.493539
 H         0.144067         2.196359         0.102288
 H         1.027820        -0.229731        -1.455749
 H        -0.463490         0.580316        -1.580443
 H         1.227311         0.927518        -3.658365
 H         2.153824        -0.118095         0.321449
