19
Iteration:   364
 C         3.270715         2.020459        -3.348954
 C         2.107951         2.316596        -2.317855
 C         2.429566         2.462224        -0.857791
 C         1.170675         1.890563        -0.106329
 C         0.059975         1.700736        -1.204207
 C         0.735958         1.995790        -2.481835
 O         1.193081         3.346047        -2.712517
 C         1.353578         0.557258         0.509570
 O         1.467761         0.335152         1.692363
 H         4.063056         2.754254        -3.185036
 H         3.747341         1.012440        -3.151119
 H         3.006351         2.183182        -4.351437
 H         3.403143         2.088629        -0.583585
 H         2.509887         3.513510        -0.585082
 H         0.990061         2.550789         0.776365
 H        -0.520320         0.710638        -1.218351
 H        -0.744420         2.497519        -1.129756
 H         0.343563         1.448612        -3.418583
 H         1.671806        -0.361352        -0.106719
