19
Iteration:  4568charge 0 multiplicity 1
 C         3.072474         3.486806        -3.070167
 C         2.168470         2.611887        -2.305404
 C         2.077591         2.570982        -0.735527
 C         0.962364         1.636269        -0.387358
 C         1.096849         0.560006        -1.513209
 C         1.440662         1.370701        -2.767442
 O         0.738228         2.709908        -2.729923
 C         1.005537         1.338053         1.100031
 O         1.346401         0.244778         1.567291
 H         2.919673         4.547797        -2.638156
 H         4.132290         3.167455        -3.117163
 H         2.786138         3.695877        -4.270822
 H         3.071247         2.222030        -0.421262
 H         1.849043         3.569857        -0.319039
 H         0.000211         2.182201        -0.507593
 H         1.972662        -0.090405        -1.212182
 H         0.187166        -0.007343        -1.724565
 H         1.543490         0.895911        -3.715779
 H         0.866983         2.227090         1.705722
