19
Iteration:  1298charge 0 multiplicity 1
 C         3.254007         2.901425        -3.255798
 C         2.146812         2.451015        -2.288069
 C         2.510441         1.774421        -0.971487
 C         1.017191         1.391326        -0.478797
 C         0.391983         0.826464        -1.765209
 C         0.838860         1.839902        -2.705688
 O         0.988235         3.257515        -2.194260
 C         1.377891         0.668870         0.852977
 O         1.281341         1.340272         1.895321
 H         3.744634         3.752760        -2.735849
 H         4.023048         2.137956        -3.348204
 H         2.647633         3.255671        -4.161090
 H         3.191968         0.894037        -1.277240
 H         3.107234         2.385827        -0.342073
 H         0.442401         2.320138        -0.388995
 H         0.891701        -0.082706        -1.929897
 H        -0.716895         0.741768        -1.658769
 H         0.567639         1.770384        -3.741460
 H         1.910889        -0.335975         0.770667
