19
Iteration:   529
 C         3.100774         2.532038        -3.655278
 C         2.173438         2.362488        -2.458925
 C         2.713785         2.001007        -1.098262
 C         1.479867         1.692733        -0.244526
 C         0.349315         1.214084        -1.272479
 C         0.783765         1.921351        -2.548875
 O         1.058971         3.326070        -2.274836
 C         1.602571         0.796769         0.953007
 O         0.663367         0.693365         1.724291
 H         3.810669         3.361371        -3.545460
 H         3.734661         1.663315        -3.753169
 H         2.597922         2.760372        -4.526067
 H         3.543862         1.297799        -0.903874
 H         3.309046         2.886750        -0.801984
 H         1.077126         2.577841         0.320214
 H         0.440466         0.154924        -1.647773
 H        -0.669951         1.349120        -0.818524
 H         0.193411         1.843335        -3.574345
 H         2.519493         0.176847         1.015192
