19
Iteration:  3723
 C         3.354769         3.059653        -2.805725
 C         2.076523         2.605968        -2.166260
 C         1.815440         2.778382        -0.627064
 C         0.615283         1.770221        -0.279859
 C         0.653322         0.691822        -1.478453
 C         1.417347         1.381429        -2.586709
 O         0.829603         2.674247        -2.937946
 C         0.913919         1.007302         0.923127
 O         2.082572         0.650996         1.185323
 H         3.515300         4.174356        -2.524610
 H         4.302979         2.472718        -2.495238
 H         3.121946         3.074816        -3.843150
 H         2.722520         2.599466        -0.149476
 H         1.734959         3.831758        -0.426866
 H        -0.462936         2.158794        -0.265668
 H         1.333170        -0.143819        -1.165116
 H        -0.296969         0.372171        -1.867926
 H         1.664030         0.883996        -3.472244
 H         0.204087         0.439835         1.512243
