19
Iteration:  2694
 C         3.293379         2.914870        -3.251916
 C         2.122882         2.625899        -2.279028
 C         2.256470         2.643448        -0.830652
 C         1.112535         1.596788        -0.279565
 C         0.457356         0.844600        -1.523508
 C         1.115098         1.564524        -2.632970
 O         0.818240         2.964085        -2.822180
 C         1.492151         0.671879         0.788962
 O         1.204500         0.757771         1.979197
 H         3.894645         3.773163        -2.902341
 H         3.940385         2.032518        -3.318685
 H         2.910552         3.268373        -4.288613
 H         3.227373         2.261379        -0.480303
 H         2.006434         3.567011        -0.296633
 H         0.338564         2.173226         0.196942
 H         0.694621        -0.275291        -1.600106
 H        -0.592535         0.929219        -1.546763
 H         1.292168         1.077544        -3.631108
 H         2.290163        -0.081694         0.500418
