19
Iteration:  4818charge 0 multiplicity 1
 C         3.414705         2.999433        -2.439475
 C         2.094715         2.521475        -2.092445
 C         1.332355         3.023435        -0.829794
 C         0.616688         1.881552        -0.152796
 C         0.296847         0.971150        -1.357927
 C         1.311725         1.273840        -2.438185
 O         1.076418         2.433964        -3.179505
 C         1.458661         1.251197         0.961952
 O         2.170653         0.279229         0.769665
 H         3.359422         4.075055        -2.333988
 H         4.211088         2.581471        -1.914910
 H         3.688289         2.692968        -3.495372
 H         1.952117         3.467024         0.015698
 H         0.587407         3.852799        -1.071759
 H        -0.327662         2.169344         0.382204
 H         0.342917        -0.168677        -0.999926
 H        -0.736315         1.076891        -1.757893
 H         1.819927         0.555430        -3.057627
 H         1.449923         1.802080         1.956923
