19
Iteration:   390charge 0 multiplicity 1
 C         3.259052         2.028111        -3.403231
 C         2.121214         2.395011        -2.344210
 C         2.471822         2.524402        -0.856250
 C         1.227441         1.974900        -0.070548
 C         0.123442         1.647219        -1.171798
 C         0.736132         2.052287        -2.511977
 O         1.173949         3.320472        -2.837132
 C         1.462391         0.566526         0.626765
 O         1.287021         0.195478         1.779750
 H         4.226998         2.668157        -3.399641
 H         3.550578         0.981430        -3.454136
 H         2.741371         2.447625        -4.324924
 H         3.353221         1.915082        -0.627646
 H         2.693171         3.552839        -0.575979
 H         0.949432         2.662357         0.725316
 H        -0.086021         0.629767        -1.320822
 H        -0.827527         2.059409        -0.863221
 H         0.187983         1.539314        -3.382971
 H         1.599889        -0.352119        -0.045773
