19
Iteration:  2863charge 0 multiplicity 1
 C         3.513525         2.710438        -2.712304
 C         2.051161         2.452601        -2.204030
 C         1.827481         2.772014        -0.731909
 C         0.806046         1.711495        -0.249390
 C         0.136022         1.046490        -1.471488
 C         1.112740         1.460227        -2.635283
 O         0.905059         2.871811        -3.020735
 C         1.729581         0.793321         0.478777
 O         1.722084         0.717625         1.680407
 H         3.725617         3.756721        -2.406039
 H         4.271519         1.933169        -2.445955
 H         3.401486         2.852085        -3.728468
 H         2.802635         2.787595        -0.353525
 H         1.302998         3.815372        -0.523426
 H         0.085632         2.110728         0.508501
 H        -0.183626         0.029070        -1.290613
 H        -0.895287         1.500049        -1.552836
 H         1.413351         0.757434        -3.347422
 H         2.507446         0.277329        -0.088909
