19
Iteration:  3280
 C         2.926656         3.256644        -3.508500
 C         2.162684         2.561534        -2.407797
 C         2.617618         2.403088        -0.963221
 C         1.431424         1.682880        -0.295651
 C         0.870802         0.720222        -1.366793
 C         1.256748         1.460136        -2.615457
 O         0.752188         2.864320        -2.389562
 C         1.536852         0.881195         0.990161
 O         0.510077         0.720639         1.664717
 H         3.223685         4.237138        -3.225204
 H         3.641018         2.595858        -3.925310
 H         1.980590         3.368373        -4.170230
 H         3.561239         1.712355        -1.004528
 H         2.757538         3.419119        -0.383451
 H         0.638385         2.544711         0.027479
 H         1.615537        -0.070833        -1.268276
 H        -0.205346         0.461465        -1.143320
 H         1.077151         1.062877        -3.668545
 H         2.428898         0.331803         1.408613
