19
Iteration:   201
 C         3.420881         2.243393        -3.158224
 C         2.110992         2.273840        -2.288155
 C         2.460654         2.059048        -0.843627
 C         1.051685         1.982106        -0.253972
 C         0.057841         1.363171        -1.360784
 C         0.740880         1.949931        -2.607987
 O         1.099023         3.324052        -2.467512
 C         0.985087         1.133090         1.090852
 O         1.843771         0.291122         1.091685
 H         4.247540         2.905575        -2.776295
 H         3.843084         1.181361        -3.135225
 H         3.249273         2.652294        -4.194041
 H         2.945201         1.050268        -0.664022
 H         3.062817         2.930187        -0.575519
 H         0.713154         3.019928        -0.083428
 H        -0.097947         0.323776        -1.354895
 H        -0.935644         1.773343        -1.195881
 H         0.426939         1.599373        -3.672748
 H         0.120053         1.283840         1.750786
