19
Iteration:  2461
 C         3.270833         2.821039        -3.313276
 C         2.216067         2.503570        -2.295412
 C         2.303684         2.527905        -0.823120
 C         1.087769         1.794244        -0.181552
 C         0.517796         0.875553        -1.445308
 C         1.042496         1.680980        -2.662680
 O         0.756266         3.038598        -2.814211
 C         1.610139         0.911590         0.876566
 O         1.082175         0.448115         1.891653
 H         3.823069         3.878209        -3.142354
 H         4.006768         1.995133        -3.579451
 H         2.788504         3.097748        -4.272556
 H         3.135048         1.845067        -0.646151
 H         2.593923         3.490272        -0.431153
 H         0.135880         2.388172         0.026854
 H         0.830241        -0.170621        -1.554310
 H        -0.626154         1.076992        -1.478812
 H         1.193995         1.180132        -3.667546
 H         2.676269         0.663601         0.688441
