19
Iteration:  1800charge 0 multiplicity 1
 C         3.269689         2.790319        -3.327442
 C         2.128300         2.572756        -2.337535
 C         2.415812         2.345923        -0.868680
 C         1.179692         1.641166        -0.283124
 C         0.544535         0.868807        -1.503332
 C         0.901494         1.779146        -2.671882
 O         0.820275         3.184191        -2.684777
 C         1.586396         0.801716         0.861773
 O         1.014514         0.631482         1.956897
 H         3.718604         3.776016        -3.239265
 H         4.051461         2.026469        -2.973642
 H         3.015304         2.488904        -4.361293
 H         3.387988         1.817744        -0.715329
 H         2.647306         3.356506        -0.478377
 H         0.389157         2.331883         0.103977
 H         1.195339         0.057277        -1.717590
 H        -0.492371         0.533525        -1.275061
 H         0.445432         1.381127        -3.698737
 H         2.529792         0.207692         0.609408
