19
Iteration:  3970
 C         3.308463         3.174425        -2.937357
 C         1.973737         2.710491        -2.258530
 C         1.719717         3.066406        -0.773517
 C         0.854913         1.758253        -0.285292
 C         0.926823         0.671505        -1.381545
 C         1.448735         1.374928        -2.548254
 O         0.789448         2.602985        -3.000281
 C         1.343899         1.286906         1.109031
 O         1.498135         0.064103         1.266029
 H         3.436851         4.286223        -2.833690
 H         4.113846         2.549873        -2.361350
 H         3.260267         2.783711        -4.078740
 H         2.535261         3.123997        -0.123991
 H         1.010697         3.869939        -0.765641
 H        -0.129848         2.166910        -0.273666
 H         1.487668        -0.261052        -1.037493
 H        -0.123482         0.247698        -1.484632
 H         1.803715         0.718138        -3.325116
 H         1.663514         1.910973         1.944336
