19
Iteration:  4121
 C         3.235664         3.205622        -3.025906
 C         2.032103         2.659954        -2.273881
 C         1.877885         2.849357        -0.756717
 C         0.820850         1.791613        -0.270461
 C         1.008294         0.739687        -1.423159
 C         1.427145         1.405505        -2.667627
 O         0.788161         2.676490        -2.920502
 C         0.992870         1.144424         1.105384
 O         1.636193         0.162951         1.420027
 H         3.655574         4.184566        -2.831764
 H         3.958451         2.479209        -2.866989
 H         2.993704         3.070027        -4.172151
 H         2.973956         2.909559        -0.253746
 H         1.634986         3.898215        -0.558594
 H        -0.292396         2.093622        -0.335533
 H         1.802431         0.070406        -1.051109
 H        -0.028806         0.335951        -1.653305
 H         1.848742         0.849357        -3.499323
 H         0.503307         1.709964         1.994673
