19
Iteration:  2393charge 0 multiplicity 1
 C         3.345211         2.762895        -3.129600
 C         2.090900         2.514103        -2.333689
 C         2.140594         2.788576        -0.787142
 C         1.120489         1.779478        -0.108347
 C         0.370384         1.192261        -1.416184
 C         0.973692         1.550108        -2.707484
 O         0.897024         2.962281        -2.945231
 C         1.668568         0.647747         0.703077
 O         1.254749         0.424948         1.863586
 H         3.458393         3.885172        -3.369875
 H         4.118516         2.258293        -2.497017
 H         3.363296         2.196281        -4.149183
 H         3.187435         2.624172        -0.519537
 H         1.938514         3.779300        -0.543332
 H         0.436161         2.305852         0.563974
 H         0.355300         0.092701        -1.436586
 H        -0.677531         1.533211        -1.160128
 H         0.912120         0.837433        -3.514758
 H         2.530627         0.078054         0.315169
