19
Iteration:  2847charge 0 multiplicity 1
 C         3.385510         2.820402        -2.720209
 C         2.076439         2.432665        -2.234847
 C         1.868900         2.782367        -0.772704
 C         0.796912         1.778560        -0.234283
 C         0.182851         1.082508        -1.478215
 C         1.044455         1.432921        -2.643648
 O         0.986051         2.812716        -2.991116
 C         1.665456         0.798430         0.513462
 O         1.750033         0.670416         1.717841
 H         3.826119         3.685325        -2.233620
 H         4.086245         2.014149        -2.398808
 H         3.655884         2.669559        -3.854098
 H         2.630860         2.718383         0.081825
 H         1.701453         3.779948        -0.723211
 H        -0.006201         2.231463         0.413561
 H         0.354421        -0.033021        -1.405872
 H        -0.843706         1.329130        -1.758612
 H         0.905023         0.736848        -3.621217
 H         2.251698         0.215194        -0.258977
