19
Iteration:  4758
 C         3.462023         2.872499        -2.512603
 C         2.020021         2.625393        -2.167910
 C         1.355978         3.168438        -0.840665
 C         0.691221         1.853010        -0.225871
 C         0.493644         0.703457        -1.412177
 C         1.415619         1.332014        -2.538791
 O         0.884486         2.627503        -3.081705
 C         1.555571         1.315230         0.939783
 O         1.947508         0.155140         1.011520
 H         3.541980         3.949510        -2.687489
 H         3.952653         2.701325        -1.509187
 H         3.805807         2.417221        -3.398641
 H         1.912838         3.622474        -0.120242
 H         0.543067         3.806312        -1.105555
 H        -0.217191         2.049676         0.319883
 H         0.816171        -0.237621        -1.074874
 H        -0.593109         0.703683        -1.661616
 H         1.705565         0.510908        -3.225268
 H         1.886735         2.098610         1.675243
