19
Iteration:  3819
 C         3.223111         3.238327        -2.987463
 C         2.083043         2.644292        -2.207774
 C         2.088581         2.616731        -0.724462
 C         0.860237         1.610038        -0.375488
 C         0.968782         0.586487        -1.477241
 C         1.356055         1.418894        -2.739987
 O         0.696344         2.782382        -2.800471
 C         0.821293         1.182593         1.016761
 O         1.744271         0.475262         1.450358
 H         2.988255         4.252033        -3.319786
 H         4.171097         3.155309        -2.399183
 H         3.251057         2.757472        -3.872999
 H         3.101193         2.332109        -0.215036
 H         1.889112         3.649663        -0.238410
 H        -0.088473         2.242307        -0.464095
 H         1.765402        -0.103874        -1.351306
 H         0.063724         0.101493        -1.636092
 H         1.483080         0.979667        -3.694253
 H         0.092433         1.540154         1.760614
