19
Iteration:  1486
 C         3.417000         2.511568        -2.949324
 C         2.169644         2.367716        -2.264425
 C         2.041428         2.576426        -0.727281
 C         0.750308         1.675986        -0.232539
 C         0.047643         1.228295        -1.517843
 C         0.906591         1.736450        -2.724074
 O         1.041910         3.135475        -2.791564
 C         1.581063         0.601490         0.613730
 O         1.796637         0.719692         1.753879
 H         3.937660         3.608495        -3.014197
 H         4.207247         1.910395        -2.468653
 H         3.173861         2.217765        -3.953012
 H         2.962266         2.186233        -0.234905
 H         2.023567         3.640057        -0.515179
 H         0.124234         2.417951         0.241946
 H         0.024116         0.127270        -1.623500
 H        -1.008525         1.597460        -1.471044
 H         0.819752         1.091976        -3.633222
 H         1.944359        -0.233085        -0.070543
