19
Iteration:  1471
 C         3.449770         2.474618        -3.004841
 C         2.064526         2.447479        -2.198213
 C         2.039929         2.438150        -0.699696
 C         0.844060         1.627228        -0.268730
 C         0.073049         1.178270        -1.571705
 C         0.870633         1.738890        -2.702638
 O         1.054741         3.223038        -2.849098
 C         1.521185         0.670868         0.615430
 O         1.816444         0.748234         1.827471
 H         3.574464         3.484508        -3.131080
 H         4.286857         1.965564        -2.480576
 H         3.531358         2.097891        -4.088741
 H         2.965565         2.045127        -0.317943
 H         1.910567         3.413223        -0.253154
 H         0.172997         2.089643         0.483112
 H        -0.201133         0.076017        -1.654898
 H        -0.918323         1.706041        -1.589731
 H         0.927345         1.389796        -3.695522
 H         2.042820        -0.087432         0.072600
