19
Iteration:  4752
 C         3.440345         2.911282        -2.551465
 C         2.015231         2.641881        -2.164914
 C         1.333301         3.132840        -0.854718
 C         0.715414         1.829411        -0.259021
 C         0.484243         0.728472        -1.377437
 C         1.381333         1.340411        -2.487136
 O         0.922825         2.640803        -3.098136
 C         1.571776         1.288141         0.923314
 O         1.924863         0.147921         1.051817
 H         3.466948         4.011488        -2.701924
 H         4.015284         2.676207        -1.670856
 H         3.989197         2.435140        -3.457551
 H         2.131114         3.581961        -0.077809
 H         0.483512         3.799078        -1.292217
 H        -0.225718         2.290672         0.219345
 H         0.896107        -0.376280        -1.133298
 H        -0.593940         0.612905        -1.592127
 H         1.755016         0.559341        -3.150601
 H         1.812688         1.906521         1.847063
