19
Iteration:  4978
 C         3.475783         2.891990        -2.276700
 C         1.995392         2.594318        -2.056689
 C         1.199257         3.156416        -0.881429
 C         0.653188         1.908470        -0.166855
 C         0.241136         0.937542        -1.401474
 C         1.332430         1.298978        -2.453933
 O         1.009637         2.410024        -3.255153
 C         1.680643         1.297501         0.842392
 O         2.188008         0.182440         0.819285
 H         3.473315         3.932076        -1.917961
 H         3.942465         2.225013        -1.440248
 H         3.858387         2.520963        -3.255210
 H         1.737163         3.908855        -0.200605
 H         0.392750         3.849704        -0.996602
 H        -0.257226         2.179617         0.413096
 H         0.498654        -0.009416        -0.974893
 H        -0.802991         1.003462        -1.637034
 H         1.914072         0.588019        -3.153516
 H         1.753863         1.878551         1.847814
