19
Iteration:  1530
 C         3.431617         2.560380        -2.977416
 C         2.103637         2.535245        -2.235766
 C         2.107645         2.767356        -0.753161
 C         0.903626         1.877669        -0.182215
 C         0.112355         1.310687        -1.442973
 C         1.022468         1.587430        -2.575635
 O         0.918965         2.981191        -2.975923
 C         1.416611         0.580891         0.537081
 O         1.757799         0.487585         1.763227
 H         4.352477         3.158503        -2.498315
 H         3.949885         1.604557        -2.823018
 H         3.159139         2.776130        -3.986782
 H         3.102515         2.445454        -0.388556
 H         2.006950         3.816084        -0.582563
 H         0.333949         2.213728         0.688712
 H         0.038942         0.222821        -1.197999
 H        -0.876289         1.734264        -1.743514
 H         1.010794         0.845469        -3.419068
 H         1.502282        -0.336100        -0.058815
