19
Iteration:  2943
 C         3.477234         2.690564        -2.684244
 C         2.042300         2.477353        -2.210090
 C         1.770534         2.864379        -0.771671
 C         0.838879         1.774243        -0.187184
 C         0.182702         1.071479        -1.472813
 C         1.112774         1.477211        -2.647890
 O         0.880375         2.851004        -3.054606
 C         1.673093         0.789480         0.492833
 O         1.774755         0.609886         1.681563
 H         3.738427         3.710132        -2.816020
 H         4.146032         2.337691        -1.924454
 H         3.838932         1.994806        -3.529356
 H         2.805915         3.075666        -0.261768
 H         1.292552         3.918354        -0.698444
 H         0.203964         2.167459         0.534947
 H         0.190310        -0.032673        -1.362267
 H        -0.776471         1.577035        -1.504872
 H         1.318039         0.667097        -3.400513
 H         2.171641         0.083600        -0.277743
