19
Iteration:  4284
 C         3.238750         3.184054        -3.072309
 C         2.037858         2.675023        -2.251937
 C         1.945471         2.876793        -0.744851
 C         0.928800         1.832642        -0.356468
 C         1.109655         0.710564        -1.357642
 C         1.466312         1.436218        -2.631019
 O         0.655312         2.625691        -2.784220
 C         1.161102         1.254500         1.057741
 O         1.344052         0.067496         1.317274
 H         3.210950         4.291671        -3.155574
 H         4.056449         2.657210        -2.561838
 H         3.134861         2.647400        -4.190986
 H         2.818505         2.742286        -0.180533
 H         1.483694         3.934885        -0.640469
 H        -0.120344         2.240160        -0.338865
 H         2.003458         0.071688        -1.110293
 H         0.156482         0.162291        -1.384888
 H         1.896727         1.120853        -3.601375
 H         1.278935         1.984959         1.930474
