19
Iteration:  1654
 C         3.378303         2.422631        -3.140807
 C         2.130588         2.452920        -2.261471
 C         2.018988         2.880240        -0.779861
 C         0.949647         1.897854        -0.089599
 C         0.245799         1.276331        -1.320930
 C         0.975029         1.662639        -2.579292
 O         0.964648         3.077949        -2.957590
 C         1.761719         0.702516         0.659920
 O         1.404656         0.291136         1.679331
 H         3.642118         3.345493        -3.555214
 H         4.101674         2.001049        -2.450665
 H         3.320218         1.784432        -4.063116
 H         2.905783         2.865555        -0.198061
 H         1.530455         3.858340        -0.566669
 H         0.305076         2.499498         0.589685
 H         0.376473         0.213749        -1.300648
 H        -0.788225         1.385257        -1.394063
 H         1.292563         0.986811        -3.326059
 H         2.459998         0.223787        -0.111047
