19
Iteration:   857charge 0 multiplicity 1
 C         3.430914         2.189225        -3.011430
 C         2.118798         2.479960        -2.237953
 C         2.203084         2.600976        -0.671631
 C         0.885670         1.966549        -0.048861
 C         0.008173         1.580937        -1.334894
 C         0.837523         1.677517        -2.544623
 O         1.070477         3.076808        -2.914689
 C         1.423923         0.748066         0.442715
 O         1.747437         0.372024         1.535742
 H         4.033017         3.070461        -3.351987
 H         4.173040         1.480269        -2.289560
 H         3.155439         1.720251        -3.888046
 H         3.251237         2.277469        -0.521185
 H         2.273666         3.665143        -0.399971
 H         0.347955         2.426661         0.740801
 H        -0.487872         0.532159        -1.112141
 H        -0.777600         2.383582        -1.428465
 H         0.855726         0.968023        -3.408516
 H         1.778090        -0.007431        -0.374048
