19
Iteration:   306
 C         3.333529         2.089890        -3.212029
 C         2.141534         2.281912        -2.332262
 C         2.340982         2.286292        -0.741144
 C         0.990693         1.943621        -0.131879
 C        -0.123298         1.790187        -1.265325
 C         0.653450         2.049552        -2.601050
 O         1.286166         3.332468        -2.772212
 C         1.276077         0.506412         0.566908
 O         1.814106         0.385880         1.662325
 H         3.907434         2.954904        -3.206563
 H         3.886865         1.276433        -2.858140
 H         3.065568         1.719918        -4.243638
 H         3.171302         1.527700        -0.624722
 H         2.736080         3.310119        -0.418940
 H         0.823687         2.594818         0.718186
 H        -0.387259         0.636848        -1.262183
 H        -1.019423         2.432095        -1.073774
 H         0.423733         1.628941        -3.469501
 H         1.029381        -0.323767        -0.169502
