19
Iteration:  1883charge 0 multiplicity 1
 C         3.077893         3.220194        -3.331350
 C         2.178947         2.460968        -2.345491
 C         2.693171         2.031538        -0.990877
 C         1.328316         1.481124        -0.381520
 C         0.554648         0.808723        -1.593835
 C         0.941240         1.661700        -2.751800
 O         0.886319         3.032100        -2.372785
 C         1.336247         0.674879         0.917144
 O         0.934429         1.096498         1.939177
 H         3.429180         4.163743        -2.937314
 H         3.955418         2.676785        -3.633603
 H         2.466639         3.613419        -4.189464
 H         3.485194         1.296103        -1.349170
 H         3.081880         2.837595        -0.325649
 H         0.797803         2.416804        -0.083173
 H         0.817790        -0.266898        -1.621801
 H        -0.497485         0.751958        -1.359711
 H         0.657116         1.337169        -3.682369
 H         1.909912        -0.326891         0.906190
