19
Iteration:  1745charge 0 multiplicity 1
 C         3.354227         2.704894        -3.327935
 C         2.132224         2.478092        -2.304510
 C         2.307948         2.705847        -0.790503
 C         1.104360         1.904342        -0.134032
 C         0.372727         1.106272        -1.320462
 C         1.012212         1.552916        -2.596268
 O         0.871335         3.037304        -2.822463
 C         1.557989         0.738736         0.701689
 O         1.156517         0.383769         1.795764
 H         3.837879         3.615693        -3.088176
 H         4.169817         1.962838        -3.438732
 H         2.905275         3.114947        -4.230838
 H         3.278175         2.189238        -0.632463
 H         2.335991         3.804055        -0.657830
 H         0.312159         2.396999         0.475042
 H         0.350074         0.077080        -1.240332
 H        -0.686378         1.355770        -1.201716
 H         1.098087         0.851559        -3.530128
 H         2.417679         0.210249         0.274177
