19
Iteration:  3168
 C         3.242478         3.066964        -3.208528
 C         2.133727         2.559844        -2.429592
 C         2.210444         2.596104        -0.905912
 C         1.092634         1.800974        -0.177915
 C         0.597585         0.919963        -1.398782
 C         1.138770         1.437362        -2.689303
 O         0.807258         2.898800        -2.838455
 C         1.643546         0.782780         0.878229
 O         1.033842         0.491463         1.910935
 H         3.508808         4.141155        -3.198617
 H         4.214357         2.630475        -3.007261
 H         3.038612         2.962665        -4.201610
 H         3.240141         2.337521        -0.412892
 H         2.010060         3.682786        -0.782119
 H         0.242730         2.481699         0.238413
 H         0.801405        -0.131863        -1.215028
 H        -0.518033         0.895230        -1.402632
 H         1.156794         0.887538        -3.591601
 H         2.696560         0.503278         0.632004
