19
Iteration:  2915charge 0 multiplicity 1
 C         3.468648         2.634667        -2.773212
 C         2.054201         2.501489        -2.209808
 C         1.631822         2.985077        -0.803841
 C         0.770474         1.761115        -0.149028
 C         0.236301         1.027389        -1.465865
 C         1.084492         1.603485        -2.647764
 O         1.011278         2.901101        -3.146558
 C         1.702827         0.682616         0.578908
 O         1.815370         0.577769         1.778903
 H         3.826369         3.717080        -2.771619
 H         4.117249         1.989592        -2.086242
 H         3.506943         2.088514        -3.737176
 H         2.598745         3.137426        -0.292639
 H         1.201430         3.928173        -0.841721
 H         0.076296         2.129467         0.750797
 H         0.316595        -0.097871        -1.476363
 H        -0.890193         1.162451        -1.519694
 H         1.114810         0.755711        -3.419991
 H         2.111061        -0.206050        -0.055884
