19
Iteration:   109
 C         3.246244         2.507899        -3.463127
 C         2.175023         2.442016        -2.390902
 C         2.595107         2.280277        -0.957229
 C         1.255785         1.910327        -0.164477
 C         0.406960         1.228533        -1.256607
 C         0.932215         1.758465        -2.537377
 O         1.006565         3.250360        -2.446900
 C         1.393850         1.188193         1.154344
 O         0.895257         0.054171         1.266517
 H         3.818327         3.463603        -3.581176
 H         3.960511         1.730120        -3.181667
 H         2.832445         2.267467        -4.469722
 H         3.405997         1.597914        -0.855750
 H         2.943243         3.281581        -0.666710
 H         0.773914         2.886530        -0.032270
 H         0.362230         0.164245        -1.189351
 H        -0.638747         1.541979        -1.152221
 H         0.618757         1.323654        -3.505106
 H         1.994370         1.686352         1.935842
