19
Iteration:   302charge 0 multiplicity 1
 C         3.338932         2.065890        -3.233201
 C         2.117761         2.305062        -2.353546
 C         2.356016         2.305687        -0.722112
 C         1.050689         1.957124        -0.103405
 C        -0.135641         1.794191        -1.299281
 C         0.658268         2.048706        -2.607885
 O         1.282061         3.325534        -2.755840
 C         1.217771         0.462543         0.604424
 O         1.833947         0.391953         1.650631
 H         4.001259         3.045229        -3.214701
 H         3.957233         1.230428        -2.766710
 H         3.074944         1.828180        -4.265307
 H         3.157244         1.499014        -0.524556
 H         2.609303         3.331901        -0.433353
 H         0.801999         2.696521         0.690986
 H        -0.342788         0.753285        -1.342242
 H        -1.073505         2.293245        -1.040515
 H         0.307666         1.526249        -3.640414
 H         1.003523        -0.329115        -0.167363
