19
Iteration:  3683charge 0 multiplicity 1
 C         3.435800         2.929350        -2.626831
 C         2.027609         2.536468        -2.132457
 C         1.673926         2.827871        -0.767137
 C         0.606612         1.699094        -0.310607
 C         0.645060         0.651957        -1.601603
 C         1.259966         1.450345        -2.720174
 O         0.820340         2.867016        -2.956849
 C         1.047521         0.880650         0.927007
 O         2.227685         0.773709         1.361171
 H         3.724707         3.936326        -2.794721
 H         4.099198         2.435371        -2.010055
 H         3.655423         2.485870        -3.653462
 H         2.578466         2.478112        -0.070712
 H         1.172132         3.785546        -0.718841
 H        -0.283887         2.125853        -0.022838
 H         1.309509        -0.200827        -1.338623
 H        -0.415752         0.275773        -1.878615
 H         1.495407         0.843060        -3.629906
 H         0.136199         0.492995         1.441097
