19
Iteration:   274charge 0 multiplicity 1
 C         3.295640         2.047123        -3.222244
 C         2.183661         2.317529        -2.319018
 C         2.305421         2.364457        -0.818507
 C         1.066781         1.834421        -0.252668
 C        -0.006120         1.658739        -1.292236
 C         0.827909         2.042671        -2.585824
 O         1.193978         3.394367        -2.679752
 C         1.072822         0.598377         0.712725
 O         1.903136         0.352522         1.578395
 H         4.083618         2.689752        -3.199759
 H         3.638899         1.106825        -2.900086
 H         2.870215         2.075609        -4.275751
 H         3.095381         1.700652        -0.540931
 H         2.442367         3.413018        -0.470130
 H         0.690083         2.554521         0.491932
 H        -0.625384         0.680639        -1.303914
 H        -0.783594         2.405792        -1.032585
 H         0.602225         1.592211        -3.448284
 H         0.087096         0.093443         0.662112
