19
Iteration:   759
 C         3.324705         2.251279        -3.108631
 C         2.098890         2.525710        -2.322278
 C         2.259533         2.422969        -0.789168
 C         0.965101         1.897312        -0.168514
 C         0.110922         1.392085        -1.396480
 C         0.924416         1.719947        -2.606290
 O         1.049724         3.269766        -2.780457
 C         1.370075         0.635545         0.595021
 O         1.648257         0.555946         1.756194
 H         4.154299         2.919033        -2.919751
 H         3.556276         1.159319        -3.117548
 H         3.018043         2.670214        -4.004692
 H         3.109293         1.686085        -0.653119
 H         2.718761         3.333545        -0.429709
 H         0.540948         2.672774         0.427038
 H         0.031268         0.264485        -1.460146
 H        -0.882235         1.883442        -1.342771
 H         0.999004         0.979819        -3.472253
 H         1.526314        -0.287333        -0.046926
