19
Iteration:   194
 C         3.436274         2.250986        -3.161050
 C         2.155722         2.250381        -2.308976
 C         2.408230         2.016520        -0.865439
 C         1.062904         1.974245        -0.212331
 C         0.108291         1.406709        -1.365428
 C         0.753457         1.923615        -2.632379
 O         1.029887         3.338838        -2.432228
 C         1.039959         1.217123         1.038325
 O         1.782631         0.251067         1.117627
 H         4.128773         3.007296        -2.695678
 H         3.891529         1.274421        -3.268694
 H         3.164256         2.488860        -4.141730
 H         3.198364         1.169742        -0.763730
 H         3.010493         2.853608        -0.431347
 H         0.722358         3.008158        -0.086881
 H         0.091430         0.224788        -1.417256
 H        -0.899737         1.868634        -1.224688
 H         0.476965         1.548396        -3.655744
 H         0.227660         1.260080         1.830017
