19
Iteration:  3386charge 0 multiplicity 1
 C         3.218372         3.040092        -3.254955
 C         2.080093         2.639321        -2.311249
 C         2.233446         2.564786        -0.755309
 C         1.048971         1.616231        -0.309268
 C         0.716837         0.715406        -1.553794
 C         1.186193         1.464624        -2.747885
 O         0.746973         2.931585        -2.707828
 C         1.622745         0.840244         0.871165
 O         1.026239         0.758946         1.924804
 H         3.277023         4.180427        -3.251244
 H         4.246499         2.565587        -3.079612
 H         3.029613         2.701882        -4.342636
 H         3.309568         2.309300        -0.673263
 H         2.153258         3.537961        -0.326551
 H         0.223230         2.115017         0.165723
 H         1.228503        -0.262746        -1.370378
 H        -0.384965         0.393046        -1.539992
 H         1.274587         1.160432        -3.828771
 H         2.546024         0.298960         0.554794
