19
Iteration:  2854
 C         3.435677         2.768521        -2.732308
 C         2.094369         2.451721        -2.186260
 C         1.839779         2.746994        -0.738655
 C         0.805147         1.755370        -0.261638
 C         0.165200         1.056340        -1.464470
 C         1.049889         1.398906        -2.620564
 O         0.945169         2.858721        -3.024210
 C         1.683135         0.803688         0.481615
 O         1.738500         0.698547         1.694491
 H         3.815975         3.665713        -2.219520
 H         4.097429         2.034731        -2.291846
 H         3.522601         2.846720        -3.797487
 H         2.779446         2.656979        -0.119808
 H         1.440472         3.869023        -0.709102
 H         0.184891         2.231898         0.410574
 H         0.150274        -0.020658        -1.339222
 H        -0.788122         1.494570        -1.736595
 H         1.081968         0.859536        -3.460380
 H         2.481199         0.275136        -0.173597
