19
Iteration:  3302charge 0 multiplicity 1
 C         2.892695         3.324466        -3.542429
 C         2.184308         2.547214        -2.351548
 C         2.702329         2.380615        -0.852007
 C         1.436255         1.694647        -0.290196
 C         0.886989         0.659866        -1.473303
 C         1.188154         1.499475        -2.622518
 O         0.722810         2.817616        -2.485401
 C         1.505137         0.924575         0.998398
 O         0.548365         0.701543         1.755836
 H         3.238229         4.278020        -3.227551
 H         3.641756         2.621853        -3.748956
 H         2.184836         3.414268        -4.479214
 H         3.573513         1.587777        -0.791873
 H         2.965977         3.401063        -0.305583
 H         0.631098         2.630294        -0.249635
 H         1.264483        -0.328885        -1.340697
 H        -0.214168         0.872410        -1.310355
 H         1.010877         1.018463        -3.645514
 H         2.363094         0.435614         1.420509
