19
Iteration:  2486
 C         3.243727         2.982365        -3.352590
 C         2.082991         2.560144        -2.407750
 C         2.395401         2.431941        -0.950050
 C         1.243101         1.709623        -0.240640
 C         0.559457         0.916345        -1.400913
 C         1.007422         1.514530        -2.697572
 O         0.804182         3.095605        -2.714423
 C         1.648027         0.821230         0.967114
 O         0.884094         0.530676         1.946228
 H         3.966511         3.698468        -2.994597
 H         3.705759         2.006145        -3.515740
 H         3.048525         3.363097        -4.325382
 H         3.407731         2.005130        -0.752870
 H         2.436383         3.535768        -0.548980
 H         0.446594         2.381683        -0.041936
 H         1.210073         0.010711        -1.605332
 H        -0.475728         0.672612        -1.271830
 H         0.911840         1.125555        -3.696193
 H         2.718412         0.559541         1.077049
