19
Iteration:  1953charge 0 multiplicity 1
 C         3.274499         2.937809        -3.345452
 C         2.148196         2.544525        -2.326515
 C         2.458330         2.286074        -0.853690
 C         1.216435         1.467586        -0.384456
 C         0.531384         0.778138        -1.573559
 C         1.000142         1.679260        -2.697838
 O         0.783822         3.145615        -2.412744
 C         1.506868         0.642944         0.806788
 O         1.024195         1.001676         1.911471
 H         3.613275         3.963976        -3.193841
 H         4.108850         2.213701        -3.544848
 H         2.659497         3.212996        -4.159521
 H         3.369941         1.678693        -0.869472
 H         2.613854         3.194908        -0.254565
 H         0.434564         2.175490        -0.033464
 H         0.745874        -0.320258        -1.782148
 H        -0.572720         0.686739        -1.535397
 H         0.686610         1.584861        -3.811397
 H         2.343214        -0.154800         0.755211
