19
Iteration:  3014charge 0 multiplicity 1
 C         3.431769         2.757581        -2.856093
 C         2.040615         2.536664        -2.255040
 C         1.792272         2.967685        -0.806695
 C         0.907455         1.834113        -0.174493
 C         0.229374         1.072261        -1.465878
 C         1.121078         1.468288        -2.612997
 O         0.955769         2.794517        -3.077934
 C         1.633499         0.739912         0.602063
 O         1.691384         0.457005         1.801315
 H         3.733648         3.835113        -2.618995
 H         4.115114         1.997227        -2.377099
 H         3.451518         2.506084        -3.853857
 H         2.715535         3.292049        -0.182570
 H         1.222661         3.870854        -0.797744
 H         0.151356         2.364323         0.560095
 H         0.288824         0.014885        -1.331911
 H        -0.791400         1.463550        -1.670461
 H         1.402468         0.785602        -3.350630
 H         2.068622        -0.069245        -0.098392
