19
Iteration:  4963charge 0 multiplicity 1
 C         3.419398         2.829783        -2.212936
 C         1.895790         2.593541        -2.132411
 C         1.184042         3.173281        -0.811928
 C         0.633725         1.836466        -0.194549
 C         0.318787         0.953742        -1.331062
 C         1.266633         1.294346        -2.446558
 O         1.103479         2.485822        -3.292080
 C         1.623027         1.266208         0.837166
 O         2.253329         0.236680         0.824666
 H         3.764094         3.844267        -2.298007
 H         3.972046         2.277558        -1.476446
 H         3.662199         2.422723        -3.183455
 H         1.992608         3.637344        -0.199303
 H         0.409087         3.870509        -1.142169
 H        -0.232673         2.020995         0.488748
 H         0.313559        -0.137029        -1.280562
 H        -0.695290         1.175468        -1.767277
 H         1.844554         0.442733        -2.803880
 H         1.771066         2.100757         1.627614
