19
Iteration:  1238charge 0 multiplicity 1
 C         3.237810         2.967438        -3.391852
 C         2.186694         2.384935        -2.395702
 C         2.567065         1.920363        -1.014275
 C         1.244959         1.621680        -0.401364
 C         0.462668         0.923814        -1.494471
 C         0.806615         1.810086        -2.705634
 O         0.999758         3.226471        -2.402907
 C         1.190002         0.680274         0.890493
 O         1.164909         0.979025         2.022546
 H         3.629670         3.954156        -3.073426
 H         4.158195         2.343338        -3.595639
 H         2.947142         3.132976        -4.375753
 H         3.225389         1.111098        -1.069061
 H         3.090007         2.796773        -0.534646
 H         0.766564         2.591665        -0.188702
 H         0.700044        -0.156671        -1.738194
 H        -0.514084         0.895185        -1.057378
 H         0.534849         1.422061        -3.716084
 H         1.047522        -0.447545         0.645563
