19
Iteration:  1174
 C         3.299465         2.595183        -3.340575
 C         2.171592         2.440326        -2.339486
 C         2.467175         2.362418        -0.892360
 C         1.190804         1.670572        -0.238302
 C         0.222077         1.188825        -1.438885
 C         0.837976         1.803069        -2.666441
 O         0.958329         3.223563        -2.650522
 C         1.632127         0.613618         0.802468
 O         1.098551         0.687817         1.895335
 H         3.961412         3.440706        -3.057875
 H         3.919637         1.555560        -3.392920
 H         2.885616         2.729956        -4.301777
 H         3.323707         1.741715        -0.567250
 H         2.519796         3.446606        -0.536766
 H         0.494721         2.286324         0.348609
 H         0.194022         0.112467        -1.565459
 H        -0.823967         1.385123        -1.235976
 H         0.899737         1.383600        -3.680139
 H         2.427231        -0.124837         0.478804
