19
Iteration:   383charge 0 multiplicity 1
 C         3.245947         2.052789        -3.368457
 C         2.175088         2.349759        -2.417600
 C         2.396835         2.471811        -0.838242
 C         1.196247         1.965135        -0.029842
 C         0.144162         1.704922        -1.124313
 C         0.731265         1.984954        -2.560764
 O         1.189628         3.363073        -2.813318
 C         1.453304         0.528930         0.584138
 O         1.330026         0.242806         1.757185
 H         4.099432         2.653576        -3.272953
 H         3.478815         1.002551        -3.406000
 H         2.777003         2.300460        -4.378171
 H         3.437957         2.109144        -0.448853
 H         2.656930         3.580067        -0.666204
 H         0.842510         2.662113         0.734783
 H         0.026471         0.572254        -1.332062
 H        -0.810832         2.054548        -0.691944
 H         0.286531         1.544709        -3.344112
 H         1.361595        -0.252071        -0.200149
