19
Iteration:  1937
 C         3.128946         2.980555        -3.266912
 C         2.115552         2.496984        -2.334783
 C         2.527654         2.089431        -0.928596
 C         1.248805         1.470909        -0.388562
 C         0.659613         0.732725        -1.658426
 C         0.947940         1.769660        -2.747179
 O         0.770659         3.190266        -2.381119
 C         1.516376         0.741398         0.873091
 O         0.977307         1.046429         1.919131
 H         3.712401         3.818407        -2.859262
 H         3.874590         2.186309        -3.329291
 H         2.801269         3.153061        -4.342596
 H         3.451784         1.381850        -0.927267
 H         2.750322         3.004587        -0.323760
 H         0.560985         2.304069        -0.134598
 H         1.177861        -0.198048        -1.852817
 H        -0.411030         0.543527        -1.475964
 H         0.804221         1.431203        -3.721728
 H         2.126143        -0.156312         0.827554
