19
Iteration:  1227
 C         3.268241         2.908323        -3.438868
 C         2.169400         2.396442        -2.444805
 C         2.636504         1.966133        -0.987787
 C         1.197284         1.693142        -0.327259
 C         0.463882         1.017483        -1.466584
 C         0.857952         1.750223        -2.715654
 O         0.947350         3.202936        -2.458742
 C         1.183733         0.739476         0.812272
 O         1.166110         0.860068         2.097744
 H         3.508347         3.812616        -2.873578
 H         4.180903         2.278496        -3.499997
 H         2.722343         3.173926        -4.270960
 H         3.245798         1.106846        -1.018685
 H         3.145797         2.720501        -0.338470
 H         0.712191         2.630114        -0.028755
 H         0.917810        -0.011018        -1.590493
 H        -0.606366         0.983319        -1.406884
 H         0.373094         1.587284        -3.701075
 H         1.230801        -0.315189         0.384094
