19
Iteration:  1336
 C         3.343261         2.936091        -3.164631
 C         2.118922         2.413137        -2.384922
 C         2.527954         1.979368        -0.984951
 C         1.118484         1.504651        -0.428758
 C         0.365970         0.905217        -1.647350
 C         0.798809         1.770426        -2.737254
 O         0.908341         3.204355        -2.417945
 C         1.184512         0.665092         0.869768
 O         1.414312         1.129223         1.984662
 H         4.060729         3.522957        -2.629364
 H         3.892834         2.115487        -3.669468
 H         3.062333         3.496969        -4.003040
 H         3.166028         1.103305        -1.091504
 H         3.032289         2.751520        -0.311633
 H         0.652057         2.416600        -0.051834
 H         0.717787        -0.149226        -1.883516
 H        -0.716775         0.850507        -1.592199
 H         0.671085         1.494663        -3.808575
 H         1.373995        -0.388854         0.764298
