19
Iteration:  1568charge 0 multiplicity 1
 C         3.441075         2.568894        -2.950227
 C         2.153732         2.451783        -2.256798
 C         1.992042         2.750666        -0.800022
 C         0.929708         1.808646        -0.119838
 C         0.008024         1.428195        -1.403417
 C         0.976909         1.610729        -2.586847
 O         1.011219         2.961363        -3.029202
 C         1.671994         0.550187         0.517187
 O         1.630631         0.449430         1.817072
 H         3.905799         3.431870        -2.616430
 H         4.108861         1.687519        -3.127174
 H         3.091229         2.806499        -4.031766
 H         3.016705         2.678961        -0.369919
 H         1.632808         3.847783        -0.534561
 H         0.463052         2.486028         0.630842
 H        -0.277040         0.388585        -1.325310
 H        -0.891066         1.990282        -1.630231
 H         0.877430         0.830230        -3.351367
 H         2.307121        -0.144023        -0.021939
