19
Iteration:  1770charge 0 multiplicity 1
 C         3.247316         2.672431        -3.311097
 C         2.138100         2.531579        -2.334729
 C         2.308820         2.608055        -0.838767
 C         1.169358         1.728470        -0.239914
 C         0.454251         1.049265        -1.450632
 C         1.074874         1.619071        -2.640769
 O         0.843125         3.118722        -2.620786
 C         1.632972         0.725596         0.784858
 O         1.062161         0.552457         1.803669
 H         3.917965         3.581062        -3.275233
 H         3.839933         1.830653        -3.027046
 H         2.926672         2.762536        -4.296677
 H         3.395023         2.279473        -0.608215
 H         2.024435         3.632410        -0.660290
 H         0.455127         2.203465         0.382323
 H         0.624224        -0.045131        -1.495250
 H        -0.686128         1.062968        -1.469812
 H         0.697236         1.183188        -3.628248
 H         2.577196         0.175815         0.567286
