19
Iteration:  2372
 C         3.365776         2.692208        -3.142675
 C         2.110505         2.575509        -2.275174
 C         2.125243         2.679258        -0.812864
 C         0.952213         1.835360        -0.195922
 C         0.201988         1.154905        -1.387429
 C         1.126700         1.556088        -2.596324
 O         0.910181         3.013399        -3.025803
 C         1.690879         0.762031         0.728646
 O         1.376057         0.324717         1.879466
 H         3.277534         3.855339        -3.239223
 H         4.280327         2.268583        -2.657397
 H         3.227989         2.342742        -4.247578
 H         3.115656         2.509128        -0.381975
 H         1.973535         3.652273        -0.474680
 H         0.271802         2.511899         0.387804
 H        -0.079047         0.094671        -1.288335
 H        -0.889910         1.618828        -1.342356
 H         1.280530         0.966403        -3.486363
 H         2.656969         0.309638         0.282382
