19
Iteration:  2919charge 0 multiplicity 1
 C         3.471171         2.639168        -2.756993
 C         2.101586         2.533103        -2.226448
 C         1.652452         2.970393        -0.794836
 C         0.782630         1.789675        -0.166892
 C         0.208936         1.019994        -1.449835
 C         1.031616         1.569200        -2.640868
 O         0.997430         2.884280        -3.146497
 C         1.699164         0.653366         0.577879
 O         1.815286         0.582623         1.771157
 H         3.872726         3.652741        -2.783414
 H         4.188361         2.100551        -2.115310
 H         3.634142         2.099961        -3.646988
 H         2.536619         3.175895        -0.263291
 H         1.133496         4.014685        -0.734219
 H         0.047034         2.098768         0.557972
 H         0.499994        -0.038107        -1.391044
 H        -0.872847         1.196206        -1.578166
 H         1.068358         0.860813        -3.365324
 H         2.106997        -0.117538        -0.159098
