19
Iteration:   165
 C         3.338811         2.423857        -3.321816
 C         2.174489         2.392727        -2.322768
 C         2.471531         2.062908        -0.858978
 C         1.063356         2.008096        -0.183628
 C         0.145886         1.298236        -1.353288
 C         0.759226         1.861933        -2.632569
 O         1.163914         3.316564        -2.565058
 C         1.144200         1.227977         1.178897
 O         1.531780         0.068215         1.271506
 H         3.949874         3.299189        -3.197808
 H         3.983600         1.538449        -3.276609
 H         2.878095         2.462154        -4.396637
 H         2.835217         1.102103        -0.922492
 H         3.236139         2.691345        -0.369073
 H         0.630601         3.014432        -0.124485
 H         0.220705         0.245189        -1.373884
 H        -0.878337         1.582572        -1.155598
 H         0.627992         1.476079        -3.576415
 H         0.801791         1.734470         2.046733
