19
Iteration:  2015charge 0 multiplicity 1
 C         3.336157         2.906414        -3.185062
 C         2.092378         2.609209        -2.419943
 C         2.285089         2.365336        -0.813902
 C         1.063686         1.814738        -0.139625
 C         0.380108         1.044059        -1.428880
 C         1.054939         1.538309        -2.712595
 O         0.836075         3.040590        -2.875187
 C         1.479899         0.713815         0.759535
 O         1.294996         0.583085         1.949247
 H         3.651061         3.911680        -2.903844
 H         4.174370         2.210314        -2.982861
 H         3.199376         2.794802        -4.326854
 H         3.279546         1.882289        -0.554315
 H         2.371059         3.407825        -0.346835
 H         0.464056         2.626789         0.426178
 H         0.780925         0.011537        -1.306351
 H        -0.664327         0.999656        -1.512978
 H         0.835229         0.990208        -3.555414
 H         2.069664        -0.098764         0.200182
