19
Iteration:  1662
 C         3.380900         2.449187        -3.140667
 C         2.153646         2.498122        -2.257725
 C         2.090114         2.920443        -0.745230
 C         1.018876         1.878810        -0.156216
 C         0.172017         1.205649        -1.317856
 C         0.972076         1.650658        -2.553722
 O         0.958255         3.036861        -2.954926
 C         1.776848         0.695124         0.595121
 O         1.348010         0.302596         1.729565
 H         3.583627         3.600623        -3.374568
 H         4.267537         2.045289        -2.592757
 H         3.319401         1.847512        -4.051972
 H         3.016702         3.059448        -0.154741
 H         1.661607         3.908801        -0.865162
 H         0.333206         2.274424         0.575014
 H         0.123049         0.026818        -1.327247
 H        -0.876107         1.661286        -1.343916
 H         0.815920         1.011988        -3.480464
 H         2.657735         0.163987         0.165957
