19
Iteration:  1316
 C         3.250508         2.916370        -3.176970
 C         2.164082         2.381556        -2.378333
 C         2.416126         1.807284        -1.004007
 C         1.074045         1.454459        -0.396340
 C         0.426035         0.796565        -1.644644
 C         0.839313         1.907090        -2.814126
 O         0.963827         3.236237        -2.272941
 C         1.345546         0.727135         0.842303
 O         1.335368         1.251192         1.903397
 H         3.886993         3.531963        -2.560870
 H         4.097570         2.162756        -3.529919
 H         3.024478         3.516298        -4.081884
 H         3.028545         0.946316        -0.975076
 H         2.882618         2.592523        -0.328013
 H         0.532259         2.400444        -0.103243
 H         0.943849        -0.159489        -2.029902
 H        -0.634088         0.581992        -1.480758
 H         0.341759         1.798641        -3.800951
 H         1.492669        -0.412781         0.722383
