19
Iteration:    43charge 0 multiplicity 1
 C         3.314180         2.727135        -3.557960
 C         2.266942         2.539816        -2.417056
 C         2.649583         2.420615        -0.927987
 C         1.304203         1.782787        -0.169960
 C         0.413306         1.104713        -1.274330
 C         0.934101         1.762861        -2.529354
 O         0.954677         3.161983        -2.583512
 C         1.477215         0.738898         0.939691
 O         0.627407         0.398461         1.689490
 H         4.143872         3.526565        -3.463124
 H         3.851617         1.775638        -3.607803
 H         2.764198         2.993722        -4.425639
 H         3.405824         1.728781        -0.861050
 H         2.894969         3.365105        -0.457158
 H         0.722863         2.546041         0.351766
 H         0.558197         0.097769        -1.356203
 H        -0.668155         1.214469        -1.106489
 H         0.664300         1.158831        -3.506392
 H         2.586246         0.320890         1.020430
