19
Iteration:  3725
 C         3.350356         3.068029        -2.808877
 C         2.080977         2.599253        -2.180773
 C         1.811793         2.776599        -0.633289
 C         0.602048         1.782734        -0.281217
 C         0.653842         0.694102        -1.482168
 C         1.431031         1.390393        -2.584839
 O         0.833631         2.668550        -2.931118
 C         0.919976         1.012952         0.932927
 O         2.080794         0.637983         1.192772
 H         3.462398         4.175508        -2.536375
 H         4.254594         2.496444        -2.516201
 H         3.140312         3.178387        -3.907997
 H         2.839144         2.481047        -0.098955
 H         1.663229         3.834000        -0.428556
 H        -0.404547         2.173411        -0.290817
 H         1.332034        -0.144511        -1.106255
 H        -0.379317         0.402778        -1.878002
 H         1.685519         0.786456        -3.460827
 H         0.169237         0.428623         1.505360
