19
Iteration:  4149charge 0 multiplicity 1
 C         3.250071         3.176951        -2.983567
 C         2.067068         2.664553        -2.253008
 C         1.933809         2.745359        -0.719597
 C         0.931400         1.650695        -0.405125
 C         1.044052         0.539182        -1.501332
 C         1.314648         1.472712        -2.660047
 O         0.680744         2.752517        -2.814802
 C         0.972946         1.261531         1.025473
 O         1.614253         0.310671         1.475328
 H         3.488269         4.266126        -2.784345
 H         4.191680         2.525215        -2.669614
 H         3.298646         3.159200        -4.025095
 H         2.856472         2.731255        -0.359084
 H         1.648802         3.743749        -0.292458
 H        -0.027215         1.905868        -0.724103
 H         1.872298        -0.138860        -1.261998
 H         0.048191         0.214751        -1.621889
 H         1.777055         1.113380        -3.593289
 H         0.528891         1.926796         1.750909
