19
Iteration:  3338charge 0 multiplicity 1
 C         3.098242         3.237202        -3.315141
 C         2.118248         2.539420        -2.491790
 C         2.459678         2.382521        -0.928127
 C         1.337150         1.673025        -0.319270
 C         0.905895         0.640771        -1.437372
 C         1.062778         1.494384        -2.667091
 O         0.692668         2.961284        -2.601572
 C         1.593447         0.923073         1.031997
 O         0.675790         0.717295         1.845854
 H         3.201251         4.286744        -3.061975
 H         4.088856         2.678948        -3.270813
 H         2.884564         3.155413        -4.354190
 H         3.377299         1.679994        -0.816728
 H         2.824034         3.370119        -0.412062
 H         0.446594         2.210750        -0.106276
 H         1.563496        -0.234960        -1.595745
 H        -0.056361         0.225333        -1.285852
 H         0.787080         1.093509        -3.596884
 H         2.625288         0.608245         1.155655
