19
Iteration:  4150
 C         3.246922         3.183634        -2.975676
 C         2.065991         2.659741        -2.252642
 C         1.935551         2.734456        -0.724029
 C         0.925781         1.643745        -0.398177
 C         1.054190         0.546093        -1.505275
 C         1.311374         1.465357        -2.662765
 O         0.681136         2.757249        -2.810842
 C         0.976262         1.261895         1.027756
 O         1.612240         0.317824         1.474349
 H         3.502543         4.270062        -2.802692
 H         4.194643         2.538536        -2.660418
 H         3.313565         3.162879        -4.064730
 H         2.896325         2.679703        -0.349413
 H         1.629795         3.761584        -0.311330
 H        -0.044015         1.933353        -0.737130
 H         1.834052        -0.152266        -1.279683
 H         0.061639         0.182387        -1.631298
 H         1.761837         1.116405        -3.592619
 H         0.533697         1.957563         1.724811
