19
Iteration:   852
 C         3.471289         2.172876        -2.953776
 C         2.098243         2.506720        -2.226613
 C         2.228528         2.587582        -0.735878
 C         0.869837         1.900540        -0.075495
 C        -0.021930         1.602537        -1.310590
 C         0.848323         1.694208        -2.541401
 O         1.048454         3.103919        -2.938681
 C         1.471509         0.729325         0.439061
 O         1.741300         0.407905         1.560718
 H         3.991259         2.997061        -3.489281
 H         4.092143         1.551439        -2.356259
 H         3.178739         1.787033        -4.071182
 H         3.100750         1.971707        -0.341425
 H         2.402433         3.652467        -0.365052
 H         0.214990         2.316429         0.766712
 H        -0.313250         0.596966        -1.216642
 H        -0.834807         2.311424        -1.309302
 H         0.867352         0.919352        -3.310269
 H         1.662350         0.001943        -0.379676
