19
Iteration:   188charge 0 multiplicity 1
 C         3.396952         2.282523        -3.168594
 C         2.212436         2.250993        -2.333795
 C         2.417626         2.002204        -0.879095
 C         1.036797         1.986771        -0.198350
 C         0.150617         1.431657        -1.358040
 C         0.782980         1.908962        -2.628420
 O         1.003296         3.326614        -2.432611
 C         1.066103         1.231241         0.981974
 O         1.742353         0.193849         1.171205
 H         4.047440         3.011322        -2.767477
 H         3.932564         1.294856        -3.184168
 H         3.134648         2.529325        -4.308520
 H         3.007203         1.168678        -0.771870
 H         2.899779         2.812756        -0.336116
 H         0.706525         3.018757        -0.015243
 H         0.208980         0.413803        -1.332909
 H        -0.877248         1.750189        -1.303901
 H         0.426349         1.590112        -3.583158
 H         0.411472         1.563821         1.821271
