19
Iteration:   666charge 0 multiplicity 1
 C         3.182272         2.571085        -3.503605
 C         2.193967         2.476680        -2.407408
 C         2.583455         1.963358        -1.049087
 C         1.196674         1.726995        -0.222660
 C         0.385099         1.143204        -1.503490
 C         0.864501         1.882414        -2.677158
 O         0.991313         3.370177        -2.410081
 C         1.296123         0.641343         0.844245
 O         1.170362         0.828134         2.048193
 H         3.765788         3.475605        -3.622402
 H         3.841507         1.823876        -3.100638
 H         2.815556         2.421818        -4.544024
 H         3.178987         1.052452        -1.165816
 H         3.267919         2.467743        -0.343495
 H         0.686811         2.663145         0.078975
 H         0.459903         0.028034        -1.760580
 H        -0.608424         1.501456        -1.298548
 H         0.595064         1.642232        -3.631616
 H         1.554859        -0.469061         0.467360
