19
Iteration:  2981
 C         3.433378         2.795205        -2.870762
 C         2.144472         2.449018        -2.138788
 C         1.793357         2.838395        -0.709007
 C         0.821732         1.730299        -0.125598
 C         0.093780         1.105799        -1.483422
 C         1.099002         1.455081        -2.575246
 O         1.018387         2.765772        -3.058557
 C         1.709374         0.849921         0.499530
 O         1.712032         0.591017         1.662066
 H         3.576884         3.955392        -2.889431
 H         4.236357         2.299132        -2.224078
 H         3.343390         2.443441        -3.839103
 H         2.762520         2.822264        -0.043463
 H         1.276500         3.743723        -0.589979
 H        -0.033718         2.154765         0.566255
 H        -0.331117         0.125204        -1.470927
 H        -0.855980         1.611231        -1.755186
 H         1.426554         0.754689        -3.330360
 H         2.361731         0.300274        -0.218684
