19
Iteration:  3470
 C         3.318074         3.056494        -2.846100
 C         2.021486         2.466730        -2.200863
 C         1.954764         2.624320        -0.719108
 C         0.822209         1.595656        -0.292559
 C         0.388457         0.870272        -1.593284
 C         1.219941         1.483336        -2.754553
 O         0.877399         2.788091        -2.987595
 C         1.559731         0.714584         0.666297
 O         1.620885         0.956168         1.855861
 H         3.675343         4.026956        -2.556971
 H         4.090208         2.382929        -2.376980
 H         3.353643         3.069713        -3.859876
 H         2.969115         2.258022        -0.429729
 H         1.484984         3.680506        -0.444782
 H         0.018336         2.058396         0.238469
 H         0.704404        -0.168241        -1.431946
 H        -0.689419         0.973838        -1.728514
 H         1.284644         0.852457        -3.684918
 H         2.297728        -0.161597         0.291990
