19
Iteration:  1070charge 0 multiplicity 1
 C         3.437732         2.459862        -3.268135
 C         2.164370         2.324619        -2.311836
 C         2.265712         2.745512        -0.889447
 C         1.137583         1.863482        -0.033442
 C         0.156623         1.579664        -1.165347
 C         0.844177         1.632493        -2.533614
 O         1.005145         3.014325        -2.869657
 C         1.692590         0.675240         0.607108
 O         1.158841         0.276646         1.639593
 H         3.886830         3.465957        -3.141018
 H         4.240046         1.886902        -2.956121
 H         3.365925         2.225180        -4.419199
 H         3.178727         2.820764        -0.373467
 H         1.949526         3.750835        -0.713848
 H         0.666783         2.471233         0.767733
 H        -0.243256         0.575933        -0.894508
 H        -0.585205         2.424278        -1.173073
 H         0.613878         0.985102        -3.383864
 H         2.487414        -0.032362         0.131640
