19
Iteration:  2111
 C         3.379067         2.533623        -2.933368
 C         2.060582         2.549786        -2.281672
 C         2.013893         2.825449        -0.776228
 C         0.966787         1.899312        -0.146891
 C         0.340584         1.148775        -1.391112
 C         1.045011         1.582751        -2.636201
 O         0.858930         3.000978        -3.001003
 C         1.650081         0.738916         0.621113
 O         1.508481         0.406037         1.742731
 H         3.876796         3.492561        -2.880463
 H         3.934217         1.754516        -2.499616
 H         3.416804         2.271780        -4.041887
 H         2.997067         2.424977        -0.387134
 H         1.962871         3.853487        -0.392429
 H         0.197170         2.417526         0.453212
 H         0.433551         0.093208        -1.479362
 H        -0.794912         1.350231        -1.465984
 H         0.982386         1.021251        -3.487258
 H         2.218686         0.079189        -0.127072
