19
Iteration:  3609charge 0 multiplicity 1
 C         3.398671         3.100180        -2.744687
 C         2.097100         2.464334        -2.108440
 C         1.765965         2.700841        -0.669700
 C         0.733005         1.629726        -0.312402
 C         0.252275         0.881679        -1.536604
 C         1.323366         1.376710        -2.617601
 O         0.933300         2.694359        -3.009307
 C         1.338778         0.651740         0.606398
 O         1.996830         1.000440         1.582082
 H         3.535220         4.173778        -2.515938
 H         4.412286         2.633563        -2.481699
 H         3.214528         3.149113        -3.942380
 H         2.532559         2.612486         0.038510
 H         1.334227         3.734754        -0.600118
 H        -0.246513         1.910160         0.305692
 H         0.238821        -0.204307        -1.403732
 H        -0.676007         1.397314        -1.830164
 H         1.618133         0.781241        -3.571140
 H         0.845397        -0.356363         0.452483
