19
Iteration:   123
 C         3.255300         2.492830        -3.481266
 C         2.232206         2.411470        -2.371951
 C         2.627313         2.315983        -0.906585
 C         1.227279         2.026397        -0.202628
 C         0.300919         1.282321        -1.292604
 C         0.867055         1.810075        -2.635949
 O         1.051525         3.208841        -2.482403
 C         1.289216         1.126696         1.113206
 O         1.042298        -0.016971         1.385919
 H         3.625215         3.474308        -3.457498
 H         4.072258         1.761521        -3.395289
 H         2.748284         2.229808        -4.486717
 H         3.198130         1.438811        -0.742269
 H         3.247521         3.076460        -0.433092
 H         0.856254         2.916586         0.298236
 H         0.577367         0.310787        -1.205060
 H        -0.753880         1.383757        -1.172482
 H         0.471104         1.538062        -3.559852
 H         1.434545         1.813496         2.059349
