19
Iteration:  2293
 C         3.470562         2.558662        -2.975753
 C         2.088184         2.530470        -2.261328
 C         1.985523         2.829140        -0.768660
 C         0.967603         1.831496        -0.121845
 C         0.246908         1.212642        -1.383918
 C         1.029809         1.607981        -2.604076
 O         0.818426         2.981659        -3.083525
 C         1.680360         0.717880         0.579063
 O         1.518379         0.373325         1.796880
 H         3.942203         3.530567        -2.660939
 H         4.070922         1.680651        -2.544285
 H         3.397308         2.442348        -4.143001
 H         2.991447         2.833314        -0.409487
 H         1.501638         3.747095        -0.644963
 H         0.313076         2.209548         0.605315
 H         0.238032         0.121539        -1.306995
 H        -0.684814         1.736427        -1.427044
 H         1.276533         0.918388        -3.397405
 H         2.509869         0.249653        -0.022250
