19
Iteration:   271
 C         3.276304         2.044884        -3.230792
 C         2.197918         2.358607        -2.298871
 C         2.281779         2.363973        -0.829462
 C         1.110110         1.820070        -0.261477
 C        -0.027053         1.650583        -1.304768
 C         0.826010         2.017640        -2.579239
 O         1.202522         3.393419        -2.670472
 C         1.054493         0.624510         0.724153
 O         1.908605         0.350421         1.558732
 H         4.178174         2.702356        -3.203238
 H         3.591304         1.060954        -2.919626
 H         2.881536         2.112205        -4.239074
 H         3.143275         1.641556        -0.409954
 H         2.498353         3.385644        -0.399282
 H         0.680199         2.585821         0.411376
 H        -0.646631         0.659998        -1.315335
 H        -0.814404         2.381987        -1.033098
 H         0.637388         1.517289        -3.521927
 H         0.045698         0.111099         0.809567
