19
Iteration:  3436
 C         3.313780         3.156548        -3.043957
 C         2.113395         2.600269        -2.312607
 C         2.027266         2.671445        -0.830110
 C         0.976655         1.649061        -0.301193
 C         0.481503         0.845244        -1.549191
 C         1.208140         1.414323        -2.721367
 O         0.812305         2.778363        -2.953509
 C         1.452364         0.655360         0.798969
 O         1.440134         0.781110         2.035827
 H         3.588305         4.081445        -2.608854
 H         4.093233         2.424527        -2.778568
 H         3.396390         3.133549        -4.055657
 H         3.071040         2.673650        -0.537789
 H         1.952474         3.797403        -0.560014
 H         0.179334         2.274886         0.146752
 H         0.718337        -0.219481        -1.383743
 H        -0.580004         0.925476        -1.585270
 H         1.313078         0.816699        -3.637013
 H         1.922088        -0.157135         0.232180
