19
Iteration:  4292charge 0 multiplicity 1
 C         3.270219         3.176700        -3.053603
 C         2.027178         2.717750        -2.262077
 C         1.889767         2.980283        -0.779579
 C         0.930188         1.782843        -0.321038
 C         1.084943         0.701761        -1.411228
 C         1.452908         1.389356        -2.640385
 O         0.649792         2.609051        -2.760281
 C         1.209164         1.236265         1.075129
 O         1.315380         0.067663         1.327517
 H         3.548506         4.211623        -3.175277
 H         4.135189         2.665088        -2.567530
 H         3.228548         2.770516        -4.116464
 H         2.867491         2.893948        -0.107963
 H         1.631942         4.110413        -0.536475
 H        -0.055644         2.265147        -0.276903
 H         2.093875         0.053713        -1.201822
 H         0.230242        -0.000796        -1.507139
 H         1.635690         0.949490        -3.647263
 H         1.427604         2.015056         1.792401
