19
Iteration:  4258charge 0 multiplicity 1
 C         3.132591         3.388850        -3.138445
 C         2.059564         2.649685        -2.278451
 C         2.078002         2.816881        -0.701163
 C         0.940772         1.774096        -0.288484
 C         0.944592         0.616538        -1.347492
 C         1.423195         1.340578        -2.574034
 O         0.836075         2.662193        -2.902496
 C         1.004778         1.278775         1.113966
 O         1.425246         0.126267         1.332922
 H         2.924897         4.450449        -3.186345
 H         4.165439         3.121208        -2.774733
 H         2.985984         2.931536        -4.063970
 H         3.091436         2.246997        -0.349201
 H         1.911090         3.906223        -0.360341
 H        -0.051688         2.258415        -0.362168
 H         1.898860        -0.160030        -1.228763
 H         0.018161         0.006574        -1.357578
 H         1.634444         0.866594        -3.541896
 H         0.810855         1.957071         1.923040
