19
Iteration:  1167charge 0 multiplicity 1
 C         3.334163         2.489575        -3.283629
 C         2.133808         2.437908        -2.383433
 C         2.378652         2.433087        -0.887575
 C         1.197640         1.663717        -0.229526
 C         0.254858         1.225560        -1.425003
 C         0.818649         1.811533        -2.719950
 O         0.983008         3.224105        -2.622332
 C         1.669177         0.661897         0.771749
 O         1.098504         0.630556         1.899729
 H         3.878048         3.427269        -3.106655
 H         4.028982         1.699637        -3.470219
 H         2.865139         2.767585        -4.320028
 H         3.369793         1.901768        -0.614309
 H         2.491135         3.449105        -0.519974
 H         0.529188         2.364984         0.300037
 H         0.353162         0.089994        -1.419737
 H        -0.862052         1.391262        -1.165346
 H         0.781306         1.375136        -3.717421
 H         2.384572        -0.196220         0.527452
