19
Iteration:  2387charge 0 multiplicity 1
 C         3.304183         2.757914        -3.105260
 C         2.108754         2.499328        -2.331651
 C         2.115402         2.767190        -0.788004
 C         1.109428         1.788764        -0.135372
 C         0.322035         1.163150        -1.392634
 C         1.007074         1.545337        -2.692415
 O         0.906512         3.015138        -2.986451
 C         1.700537         0.696226         0.733878
 O         1.278283         0.383647         1.884977
 H         3.546200         3.770767        -3.376814
 H         4.183068         2.333970        -2.628754
 H         3.222173         2.201684        -3.975339
 H         3.146064         2.405677        -0.536011
 H         1.930371         3.912196        -0.645282
 H         0.379869         2.332859         0.539130
 H         0.287503         0.069317        -1.280023
 H        -0.640125         1.742519        -1.568076
 H         1.068601         0.812513        -3.555118
 H         2.480475         0.031211         0.220543
