19
Iteration:   166charge 0 multiplicity 1
 C         3.345199         2.423065        -3.318344
 C         2.169118         2.389321        -2.320401
 C         2.467049         2.062773        -0.854493
 C         1.059820         2.016526        -0.198051
 C         0.145022         1.299888        -1.353775
 C         0.758965         1.865270        -2.628740
 O         1.157845         3.313604        -2.557851
 C         1.138406         1.228529         1.166512
 O         1.542638         0.068338         1.273838
 H         3.953972         3.285046        -3.166786
 H         3.975215         1.510885        -3.280569
 H         2.896032         2.439227        -4.401339
 H         2.840068         1.095989        -0.897271
 H         3.266209         2.662830        -0.399158
 H         0.627396         3.025827        -0.115251
 H         0.233238         0.280673        -1.369764
 H        -0.867592         1.600153        -1.166880
 H         0.630179         1.473711        -3.588318
 H         0.820805         1.701828         2.044214
