19
Iteration:  2535
 C         3.004017         3.071105        -3.457335
 C         2.149810         2.610539        -2.324039
 C         2.662323         2.269294        -1.028443
 C         1.347724         1.698135        -0.314620
 C         0.757315         0.730320        -1.370453
 C         1.095985         1.572780        -2.605287
 O         0.793809         2.991706        -2.394452
 C         1.458081         0.849432         0.887762
 O         0.675729         0.778913         1.765165
 H         3.312602         4.160820        -3.246809
 H         3.826410         2.315685        -3.571375
 H         2.493041         3.157530        -4.462235
 H         3.658416         1.682106        -1.039642
 H         2.951482         3.117935        -0.277693
 H         0.628120         2.586860        -0.117958
 H         1.386085        -0.180265        -1.377439
 H        -0.325593         0.300776        -1.353900
 H         1.037014         1.341996        -3.713075
 H         2.363862         0.187732         0.828648
