19
Iteration:  4247charge 0 multiplicity 1
 C         3.102531         3.453202        -3.145403
 C         2.155486         2.649162        -2.292970
 C         2.101355         2.682166        -0.739358
 C         0.912293         1.821392        -0.292891
 C         0.898206         0.632534        -1.367808
 C         1.410542         1.351645        -2.664466
 O         0.825250         2.629455        -2.898544
 C         0.999771         1.239648         1.141720
 O         1.453805         0.146373         1.422929
 H         2.849834         4.519128        -3.072133
 H         4.164607         3.409531        -2.783183
 H         3.107898         3.221347        -4.153039
 H         3.157064         2.374137        -0.303984
 H         1.994259         3.746460        -0.348857
 H        -0.024150         2.371863        -0.471124
 H         1.603534        -0.244313        -0.998586
 H        -0.135465         0.204861        -1.389627
 H         1.808565         0.724788        -3.464686
 H         0.621262         1.882604         1.944366
