19
Iteration:  1131charge 0 multiplicity 1
 C         3.391778         2.303307        -3.291240
 C         2.150440         2.515297        -2.331731
 C         2.343804         2.614638        -0.848871
 C         1.055135         1.929771        -0.181147
 C         0.267481         1.191729        -1.283863
 C         0.851315         1.806490        -2.624261
 O         0.937305         3.240083        -2.776096
 C         1.585435         0.802549         0.693926
 O         1.203874         0.316148         1.814179
 H         4.027451         3.201678        -3.169952
 H         4.058984         1.362059        -2.973062
 H         3.050556         2.256075        -4.291238
 H         3.320530         1.986383        -0.829092
 H         2.526926         3.645012        -0.380861
 H         0.646793         2.692233         0.476915
 H         0.714174         0.166704        -1.413224
 H        -0.825333         1.107277        -1.149433
 H         0.718559         1.170077        -3.512024
 H         2.320361         0.170986         0.076671
