19
Iteration:  1813charge 0 multiplicity 1
 C         3.250137         2.848853        -3.293661
 C         2.077289         2.507128        -2.456194
 C         2.485581         2.272588        -0.955595
 C         1.122366         1.652165        -0.260374
 C         0.664152         0.931144        -1.491440
 C         0.878374         1.737869        -2.723613
 O         0.833057         3.209140        -2.606017
 C         1.512180         0.733344         0.883279
 O         1.005840         0.687354         2.032503
 H         3.495230         3.944588        -3.287019
 H         4.160167         2.285931        -3.083204
 H         2.959233         2.787275        -4.317480
 H         3.294374         1.434229        -0.959848
 H         2.728080         3.151361        -0.376693
 H         0.514162         2.486582         0.010492
 H         1.202412         0.052708        -1.665315
 H        -0.382568         0.505361        -1.550181
 H         0.754413         1.209896        -3.774352
 H         2.524357         0.227421         0.801846
