19
Iteration:  4624charge 0 multiplicity 1
 C         3.289408         3.220863        -2.962052
 C         2.041414         2.735205        -2.267624
 C         1.838385         2.936103        -0.822372
 C         0.867495         1.754172        -0.290438
 C         0.982397         0.655144        -1.456196
 C         1.423844         1.475859        -2.670021
 O         0.697097         2.611903        -2.943149
 C         1.202809         1.226995         1.159747
 O         1.485580         0.051530         1.415013
 H         3.426418         4.293055        -3.252221
 H         4.154857         3.150513        -2.306580
 H         3.398477         2.679839        -4.051527
 H         2.822022         2.985845        -0.441478
 H         1.478612         3.843770        -0.398880
 H        -0.153271         2.042273        -0.095560
 H         1.675425        -0.105238        -1.057921
 H         0.030730         0.161225        -1.729877
 H         1.855565         0.873160        -3.483424
 H         1.207099         1.989586         1.988042
