19
Iteration:  3434
 C         3.306269         3.152532        -3.052494
 C         2.127308         2.609221        -2.320278
 C         2.036115         2.680053        -0.825040
 C         0.990266         1.663427        -0.277573
 C         0.495621         0.847327        -1.542772
 C         1.199210         1.404467        -2.747515
 O         0.814797         2.783666        -2.946091
 C         1.441526         0.646220         0.802616
 O         1.427957         0.777468         2.039297
 H         3.570754         4.094087        -2.627548
 H         4.025631         2.437120        -2.783490
 H         3.339423         3.122146        -4.156808
 H         2.999267         2.605090        -0.482008
 H         1.933118         3.736845        -0.609754
 H         0.152529         2.335301         0.171737
 H         0.709730        -0.234531        -1.419684
 H        -0.580055         0.849085        -1.603290
 H         1.391027         0.838449        -3.623109
 H         1.989986        -0.189960         0.236043
