19
Iteration:  3367charge 0 multiplicity 1
 C         3.180453         3.080615        -3.203615
 C         2.110655         2.557890        -2.406654
 C         2.308999         2.492028        -0.914791
 C         1.199742         1.657448        -0.370809
 C         0.837842         0.696331        -1.539150
 C         1.108546         1.559004        -2.708536
 O         0.664593         2.904962        -2.585257
 C         1.595572         0.890904         0.926679
 O         0.897749         0.737860         1.904716
 H         3.298575         4.149140        -3.193306
 H         4.047076         2.585911        -2.933143
 H         3.230966         2.684919        -4.267904
 H         3.254997         2.071498        -0.591629
 H         2.414946         3.435028        -0.446071
 H         0.209435         2.210467        -0.082688
 H         1.429201        -0.229994        -1.620969
 H        -0.245860         0.465224        -1.465807
 H         1.103213         1.133399        -3.736490
 H         2.705923         0.613885         0.873238
