19
Iteration:  1138
 C         3.385010         2.341001        -3.265079
 C         2.127239         2.495346        -2.427657
 C         2.393672         2.566014        -0.888442
 C         1.052122         1.876048        -0.176130
 C         0.255051         1.160656        -1.307364
 C         0.829304         1.841496        -2.603018
 O         0.956468         3.254517        -2.735334
 C         1.576914         0.764418         0.758936
 O         1.206218         0.368393         1.804172
 H         4.072877         3.192056        -3.149561
 H         3.974392         1.437872        -3.031876
 H         3.115385         2.313226        -4.330802
 H         3.331634         2.200040        -0.515528
 H         2.548564         3.634045        -0.652134
 H         0.397075         2.630188         0.329400
 H         0.722324         0.187460        -1.382689
 H        -0.788108         1.210486        -1.128695
 H         0.828880         1.206145        -3.533210
 H         2.325315         0.104233         0.236935
