19
Iteration:  3546
 C         3.399845         2.837028        -2.687784
 C         1.987785         2.686279        -2.222710
 C         1.752358         2.839499        -0.705120
 C         0.788906         1.541579        -0.287461
 C         0.414272         0.838254        -1.614632
 C         1.176956         1.480698        -2.726046
 O         0.874607         2.875520        -3.126608
 C         1.542093         0.619647         0.687137
 O         1.861990         0.925294         1.816754
 H         3.668093         3.899211        -2.679245
 H         4.030286         2.204200        -1.952194
 H         3.587484         2.443310        -3.715574
 H         2.696897         2.851164        -0.217387
 H         1.146365         3.853223        -0.786503
 H        -0.063370         1.884493         0.381719
 H         0.667878        -0.307517        -1.565672
 H        -0.656704         0.631068        -1.707477
 H         1.352280         0.780808        -3.648799
 H         1.627622        -0.541147         0.547975
