19
Iteration:  3840
 C         3.199984         3.188625        -3.068339
 C         2.114772         2.635353        -2.192757
 C         2.043704         2.656749        -0.741961
 C         0.836217         1.678536        -0.461521
 C         1.060096         0.556349        -1.521023
 C         1.305918         1.412661        -2.732540
 O         0.703122         2.781026        -2.625044
 C         0.873547         1.228196         0.951169
 O         1.692287         0.426686         1.480485
 H         3.039689         4.248195        -3.227074
 H         4.066375         3.278834        -2.400745
 H         3.357780         2.668201        -3.933250
 H         2.908112         2.314935        -0.050504
 H         2.091566         3.704589        -0.308479
 H        -0.109515         2.228307        -0.563562
 H         1.970425         0.015484        -1.384726
 H         0.223387        -0.087771        -1.459194
 H         1.518380         1.054551        -3.689367
 H        -0.026627         1.569251         1.556573
