19
Iteration:  1520charge 0 multiplicity 1
 C         3.445232         2.549730        -2.921342
 C         2.126253         2.480508        -2.212997
 C         2.112657         2.762954        -0.790480
 C         0.879210         1.804997        -0.240965
 C         0.157248         1.271015        -1.370005
 C         1.000784         1.601798        -2.584830
 O         0.917792         3.006118        -2.906536
 C         1.442280         0.591627         0.555674
 O         1.742288         0.556340         1.675985
 H         4.217144         3.474283        -2.698522
 H         3.720104         1.498616        -2.908369
 H         3.302617         2.584995        -3.985294
 H         2.983494         2.371461        -0.238195
 H         2.071205         3.854705        -0.611886
 H         0.154562         2.431470         0.329463
 H        -0.059298         0.199447        -1.440168
 H        -0.834693         1.739952        -1.330699
 H         1.065324         1.024214        -3.551032
 H         1.442074        -0.314134        -0.068019
