19
Iteration:  3724charge 0 multiplicity 1
 C         3.352431         3.062952        -2.807571
 C         2.078785         2.602754        -2.174235
 C         1.813425         2.777779        -0.629585
 C         0.608602         1.776150        -0.279945
 C         0.653089         0.692985        -1.480411
 C         1.424855         1.385879        -2.585935
 O         0.831463         2.671278        -2.934547
 C         0.915908         1.011038         0.927701
 O         2.081953         0.644230         1.189024
 H         3.488096         4.182012        -2.529586
 H         4.284342         2.481902        -2.503293
 H         3.128457         3.128567        -3.873542
 H         2.784400         2.542792        -0.124278
 H         1.703146         3.829498        -0.429112
 H        -0.437498         2.164170        -0.278664
 H         1.337968        -0.145681        -1.133847
 H        -0.339795         0.388252        -1.875737
 H         1.671860         0.839123        -3.462896
 H         0.192552         0.432127         1.507892
