19
Iteration:  4746charge 0 multiplicity 1
 C         3.418863         2.990254        -2.585884
 C         1.995294         2.618443        -2.157037
 C         1.347941         3.083256        -0.877697
 C         0.732025         1.805528        -0.257109
 C         0.499682         0.787466        -1.335526
 C         1.308876         1.338136        -2.441660
 O         0.971349         2.626378        -3.130843
 C         1.565625         1.276281         0.917048
 O         1.909896         0.114985         1.083921
 H         3.555384         4.066182        -2.724963
 H         4.182155         2.668801        -1.806029
 H         3.878561         2.389138        -3.416435
 H         2.041816         3.567773        -0.256370
 H         0.662034         3.812607        -1.174548
 H        -0.185132         2.238065         0.114015
 H         0.904723        -0.127856        -1.115619
 H        -0.536083         0.583979        -1.624327
 H         1.907291         0.780994        -3.192509
 H         1.660697         1.948246         1.797076
