19
Iteration:   619charge 0 multiplicity 1
 C         3.148900         2.750730        -3.557883
 C         2.204037         2.351297        -2.489790
 C         2.639290         1.906734        -1.074926
 C         1.392706         1.540439        -0.355928
 C         0.337354         1.102561        -1.409767
 C         0.770798         1.866762        -2.647076
 O         1.121152         3.265455        -2.252264
 C         1.416072         0.640273         0.908441
 O         0.891878         1.034595         1.926203
 H         3.776850         3.492644        -3.099251
 H         3.744725         2.079181        -4.006664
 H         2.557554         3.432021        -4.201259
 H         3.244642         1.016603        -1.107017
 H         3.326975         2.569106        -0.652291
 H         0.869887         2.383046         0.043297
 H         0.414827         0.041433        -1.528591
 H        -0.622387         1.399393        -1.013280
 H         0.106710         1.872339        -3.552494
 H         2.030268        -0.358662         0.912209
