19
Iteration:   812charge 0 multiplicity 1
 C         3.406234         2.233604        -3.040597
 C         2.164927         2.302319        -2.342074
 C         2.119997         2.635270        -0.797295
 C         0.901317         1.749875        -0.168835
 C         0.025975         1.574430        -1.317589
 C         0.774661         1.797479        -2.670369
 O         1.148957         3.216878        -2.829148
 C         1.527229         0.566510         0.571977
 O         1.725417         0.497942         1.737860
 H         3.981185         3.137069        -2.837088
 H         4.104938         1.325514        -2.592232
 H         3.133498         1.988398        -4.037060
 H         3.163755         2.556199        -0.518653
 H         2.007221         3.747721        -0.630990
 H         0.547047         2.490941         0.528060
 H        -0.521904         0.539274        -1.498181
 H        -0.852606         2.258742        -1.108741
 H         0.521741         1.230337        -3.635891
 H         1.475570        -0.407041        -0.001228
