19
Iteration:  1003charge 0 multiplicity 1
 C         3.333695         2.173076        -3.078924
 C         2.179542         2.387249        -2.243925
 C         2.177467         2.876810        -0.783074
 C         1.072681         2.033187        -0.058985
 C         0.112161         1.548210        -1.187885
 C         0.957840         1.670835        -2.480239
 O         1.005773         3.033851        -2.881297
 C         1.670942         0.758407         0.468554
 O         1.350276         0.207038         1.477690
 H         3.944838         3.106765        -3.193871
 H         4.025844         1.457674        -2.622913
 H         2.948843         1.662133        -4.071000
 H         3.277346         2.814645        -0.469456
 H         2.062691         3.969264        -0.804201
 H         0.340801         2.474857         0.666723
 H        -0.235352         0.492546        -0.956169
 H        -0.806413         2.215517        -1.245003
 H         0.840297         0.967826        -3.301291
 H         2.430282         0.218735        -0.147337
