19
Iteration:  4583charge 0 multiplicity 1
 C         3.118919         3.413315        -3.030970
 C         2.076552         2.661186        -2.258604
 C         2.069724         2.724191        -0.743004
 C         0.954317         1.565920        -0.393088
 C         1.095011         0.533592        -1.486957
 C         1.333705         1.450509        -2.691397
 O         0.769507         2.730083        -2.841173
 C         1.090872         1.295110         1.042240
 O         1.370667         0.217290         1.577009
 H         3.041814         4.442743        -2.836322
 H         4.086688         2.996250        -2.794602
 H         2.918771         3.133012        -4.031093
 H         2.998922         2.354353        -0.209694
 H         1.773253         3.860147        -0.543122
 H         0.018643         2.138967        -0.625166
 H         2.024387        -0.182337        -1.491756
 H         0.210532        -0.219212        -1.513696
 H         1.630606         0.998656        -3.694669
 H         0.754650         2.180329         1.733249
