19
Iteration:  1499
 C         3.471045         2.510121        -2.974188
 C         2.089789         2.394890        -2.190646
 C         2.086706         2.600863        -0.725354
 C         0.861061         1.799261        -0.214879
 C         0.087384         1.251714        -1.517457
 C         0.922040         1.609967        -2.657577
 O         0.981048         3.114028        -2.813833
 C         1.481139         0.627905         0.533287
 O         1.778779         0.674944         1.718613
 H         3.920385         3.607547        -2.780940
 H         4.168159         1.702576        -2.668307
 H         3.388813         2.379417        -4.035613
 H         3.019952         2.411931        -0.153256
 H         1.821605         3.723322        -0.636445
 H         0.299883         2.072627         0.681450
 H         0.128997         0.179177        -1.401077
 H        -0.939785         1.474674        -1.741508
 H         0.828725         1.221883        -3.710358
 H         1.802684        -0.311276        -0.037649
