19
Iteration:  1572charge 0 multiplicity 1
 C         3.439167         2.553261        -2.975668
 C         2.120555         2.432001        -2.258528
 C         1.996693         2.770061        -0.802123
 C         0.967771         1.816084        -0.128704
 C        -0.018557         1.438767        -1.411909
 C         0.969705         1.593754        -2.571567
 O         1.009619         2.957784        -2.996862
 C         1.696911         0.557902         0.523262
 O         1.608581         0.461639         1.788235
 H         3.958619         3.435631        -2.451273
 H         4.234522         1.784998        -3.008315
 H         3.126545         2.732183        -3.994680
 H         2.966142         2.679698        -0.260491
 H         1.640925         3.740857        -0.582610
 H         0.491907         2.456366         0.621495
 H        -0.230026         0.301361        -1.434848
 H        -1.001945         2.040899        -1.494733
 H         1.040087         0.934434        -3.465099
 H         2.398309        -0.153071        -0.061729
