19
Iteration:  4751
 C         3.438197         2.922039        -2.562275
 C         2.011910         2.640317        -2.163649
 C         1.335129         3.124103        -0.855767
 C         0.717576         1.824922        -0.260737
 C         0.486934         0.739928        -1.369744
 C         1.368807         1.340268        -2.476443
 O         0.931216         2.640083        -3.102800
 C         1.572908         1.284759         0.920093
 O         1.921576         0.144104         1.058291
 H         3.473178         4.012247        -2.703396
 H         4.045953         2.667830        -1.704335
 H         3.969464         2.455951        -3.399916
 H         2.117245         3.565434        -0.117656
 H         0.488905         3.813838        -1.301560
 H        -0.200607         2.298835         0.184119
 H         0.910507        -0.379266        -1.132513
 H        -0.610406         0.598642        -1.599152
 H         1.785808         0.591303        -3.159986
 H         1.790461         1.897776         1.861686
