19
Iteration:  2889
 C         3.431342         2.638787        -2.780134
 C         2.029983         2.547836        -2.206835
 C         1.688184         2.859105        -0.671295
 C         0.827279         1.703458        -0.267320
 C         0.199746         1.111481        -1.550053
 C         1.156200         1.533510        -2.635389
 O         0.965110         2.860409        -3.077615
 C         1.737331         0.697153         0.552561
 O         1.778201         0.661289         1.785784
 H         3.920896         3.565082        -2.599991
 H         3.929430         1.791590        -2.315967
 H         3.387800         2.318123        -3.904253
 H         2.680904         3.226951        -0.101766
 H         0.990977         3.753991        -0.599029
 H         0.073493         2.052589         0.376455
 H        -0.115540         0.058084        -1.431656
 H        -0.752353         1.555336        -1.674528
 H         1.158535         0.715569        -3.384992
 H         2.582581         0.132666         0.028510
