19
Iteration:  2170
 C         3.371509         2.653170        -3.042807
 C         2.159558         2.418117        -2.225496
 C         1.964092         2.791331        -0.753211
 C         0.942297         1.807817        -0.132890
 C         0.046103         1.293927        -1.326218
 C         1.089199         1.579904        -2.599963
 O         0.992505         2.932315        -3.063540
 C         1.664928         0.689579         0.607171
 O         1.568469         0.376777         1.738193
 H         3.855815         3.600346        -2.656659
 H         4.262316         2.026383        -2.512262
 H         3.163400         2.503544        -4.084028
 H         2.883371         2.832493        -0.244522
 H         1.589112         3.858110        -0.811067
 H         0.270251         2.503439         0.481287
 H        -0.279537         0.208793        -1.213998
 H        -0.786360         1.910038        -1.561621
 H         1.131093         0.829893        -3.505978
 H         2.664188         0.573510         0.020158
