19
Iteration:  3020charge 0 multiplicity 1
 C         3.409833         2.716942        -2.802681
 C         2.082685         2.612873        -2.252577
 C         1.821997         2.973987        -0.796996
 C         0.893814         1.851838        -0.166056
 C         0.268030         1.028193        -1.439994
 C         1.110179         1.489945        -2.628594
 O         0.895082         2.787188        -3.099170
 C         1.652820         0.700774         0.606732
 O         1.660995         0.476575         1.793370
 H         3.842036         3.689178        -2.707873
 H         4.164341         2.099653        -2.345977
 H         3.516466         2.620226        -3.967680
 H         2.782163         3.153560        -0.288148
 H         1.169288         3.883344        -0.993899
 H         0.319795         2.288123         0.579452
 H         0.254490        -0.112271        -1.374024
 H        -0.668751         1.554457        -1.601252
 H         1.423342         0.729409        -3.466607
 H         2.008283        -0.016280        -0.152488
