19
Iteration:  3637charge 0 multiplicity 1
 C         3.359031         2.996768        -2.664745
 C         2.011546         2.551333        -2.124514
 C         1.759778         2.738632        -0.699481
 C         0.657679         1.636049        -0.334021
 C         0.311060         0.845221        -1.609116
 C         1.319308         1.415054        -2.725286
 O         0.958397         2.740090        -3.031438
 C         1.216866         0.672556         0.839683
 O         2.164399         0.964459         1.522243
 H         3.356691         4.106546        -2.574781
 H         4.228785         2.582169        -2.158917
 H         3.519396         2.878897        -3.672573
 H         2.702249         2.338734        -0.108378
 H         1.379535         3.716065        -0.508298
 H        -0.243860         2.038943         0.025811
 H         0.501976        -0.277425        -1.479437
 H        -0.781610         0.915273        -1.829217
 H         1.745131         0.973103        -3.550291
 H         0.605808        -0.195948         0.827567
