19
Iteration:  3358
 C         3.227616         3.120260        -3.255481
 C         2.083028         2.569606        -2.377588
 C         2.434808         2.457617        -0.915340
 C         1.213584         1.619288        -0.358481
 C         0.846838         0.667215        -1.508551
 C         1.009662         1.548797        -2.731241
 O         0.669121         2.893724        -2.586974
 C         1.573676         0.944957         0.932083
 O         0.835107         0.720460         1.899950
 H         3.287408         4.164245        -3.124495
 H         4.132453         2.720509        -2.835137
 H         3.050697         2.932713        -4.328126
 H         3.497687         2.074494        -0.967421
 H         2.334082         3.542719        -0.503088
 H         0.332761         2.355832        -0.063436
 H         1.508757        -0.191032        -1.478875
 H        -0.090690         0.211344        -1.314928
 H         1.061383         1.235354        -3.742690
 H         2.691536         0.605132         0.969213
