19
Iteration:  3270charge 0 multiplicity 1
 C         2.913558         3.236997        -3.464467
 C         2.136683         2.544301        -2.357434
 C         2.581351         2.422744        -0.977344
 C         1.436137         1.728096        -0.262455
 C         0.958228         0.673389        -1.376005
 C         1.112141         1.473459        -2.599242
 O         0.767272         2.910850        -2.452789
 C         1.545482         0.843871         1.020954
 O         0.526460         0.722565         1.636640
 H         3.392049         4.126527        -3.174556
 H         3.698257         2.587985        -3.804834
 H         2.446430         3.433280        -4.500776
 H         3.561197         1.837939        -0.808684
 H         2.996799         3.470763        -0.547826
 H         0.613607         2.572213        -0.062785
 H         1.592019        -0.213108        -1.291688
 H        -0.077491         0.257634        -1.309563
 H         0.861340         0.975261        -3.582021
 H         2.555439         0.355721         1.376792
