19
Iteration:  1950
 C         3.273070         2.938117        -3.336165
 C         2.139133         2.524339        -2.306446
 C         2.447937         2.252147        -0.861875
 C         1.231735         1.460252        -0.381339
 C         0.553583         0.761269        -1.591310
 C         0.988403         1.679333        -2.710612
 O         0.768394         3.168060        -2.409039
 C         1.518810         0.653228         0.803474
 O         1.010545         1.016692         1.915370
 H         3.595687         3.953433        -3.136294
 H         4.099634         2.221349        -3.555581
 H         2.609634         3.220993        -4.217886
 H         3.479113         1.645496        -0.912399
 H         2.676810         3.204635        -0.252923
 H         0.484914         2.277682        -0.050368
 H         0.798755        -0.340812        -1.776336
 H        -0.493901         0.720117        -1.584056
 H         0.720934         1.661837        -3.683400
 H         2.292550        -0.116932         0.732891
