19
Iteration:  3661charge 0 multiplicity 1
 C         3.462544         2.934168        -2.638296
 C         1.998402         2.584307        -2.166527
 C         1.702193         2.758493        -0.693429
 C         0.695739         1.570341        -0.329797
 C         0.494677         0.765810        -1.605871
 C         1.218858         1.458464        -2.720221
 O         0.871768         2.819076        -3.055009
 C         1.090955         0.838446         0.949000
 O         2.228564         0.860245         1.445663
 H         3.528789         3.998712        -2.660268
 H         4.123821         2.582394        -1.935628
 H         3.917837         2.660090        -3.611521
 H         2.603751         2.609559         0.007104
 H         1.035048         3.574024        -0.617200
 H        -0.208154         2.002437        -0.071042
 H         0.942481        -0.234626        -1.611016
 H        -0.627255         0.569930        -1.795963
 H         1.432712         0.882450        -3.636890
 H         0.286805         0.183416         1.155009
