19
Iteration:  1990
 C         3.275791         2.902166        -3.249714
 C         2.189995         2.505209        -2.364777
 C         2.386240         2.436286        -0.862379
 C         1.078696         1.712942        -0.278822
 C         0.503123         0.916290        -1.504581
 C         1.021714         1.631896        -2.768270
 O         0.820348         3.113218        -2.707957
 C         1.393366         0.685200         0.779678
 O         1.216344         0.676421         2.059520
 H         3.511986         3.925348        -2.900915
 H         4.167097         2.413183        -3.537908
 H         2.687164         2.929318        -4.218180
 H         3.151668         1.757156        -0.651621
 H         2.709846         3.326698        -0.361834
 H         0.373250         2.429388         0.082419
 H         0.892994        -0.048991        -1.491637
 H        -0.599720         1.023672        -1.275571
 H         0.881301         0.997979        -3.664305
 H         2.016597        -0.246083         0.426362
