19
Iteration:  4410
 C         3.164368         3.408302        -3.049567
 C         2.075454         2.644089        -2.289578
 C         1.872723         2.900566        -0.799016
 C         1.004189         1.791146        -0.247555
 C         0.900849         0.716586        -1.338816
 C         1.438093         1.384263        -2.628347
 O         0.826942         2.606308        -3.003070
 C         1.565507         1.083791         0.971988
 O         1.087212         0.081466         1.509897
 H         2.766650         4.575013        -3.088515
 H         4.042981         3.451525        -2.248918
 H         3.275350         2.949888        -4.001544
 H         2.801820         3.060395        -0.284232
 H         1.468313         3.834269        -0.631122
 H         0.006520         2.112220         0.094302
 H         1.487069        -0.131273        -1.112066
 H        -0.114108         0.304968        -1.358010
 H         1.633565         0.613257        -3.411176
 H         2.316476         1.658215         1.514044
