19
Iteration:  2899
 C         3.385369         2.579288        -2.754557
 C         2.036863         2.561433        -2.198142
 C         1.681538         2.889223        -0.743854
 C         0.857128         1.700084        -0.194218
 C         0.214112         1.096586        -1.495542
 C         1.105318         1.469042        -2.687565
 O         1.001970         2.948998        -3.129514
 C         1.684833         0.717587         0.598589
 O         1.808440         0.613397         1.796361
 H         3.806426         3.563921        -2.713619
 H         4.167705         1.970654        -2.348934
 H         3.316761         2.340285        -3.849071
 H         2.494938         3.257668        -0.015232
 H         0.889861         3.744732        -0.757331
 H         0.058818         2.030453         0.361869
 H         0.207082         0.010418        -1.391244
 H        -0.733011         1.552206        -1.663295
 H         1.572342         0.848494        -3.427327
 H         2.260775         0.135687        -0.138252
