19
Iteration:   784
 C         3.414660         2.199529        -3.169742
 C         2.166796         2.398508        -2.299503
 C         2.266142         2.565560        -0.624778
 C         0.927356         1.766831        -0.150494
 C         0.006382         1.503670        -1.392906
 C         0.820362         1.805317        -2.665850
 O         1.059052         3.249249        -2.882748
 C         1.422124         0.562287         0.576094
 O         1.702402         0.542388         1.784099
 H         4.196729         2.966247        -2.936774
 H         3.794958         1.228835        -3.124109
 H         3.019516         2.506193        -4.261451
 H         3.303473         2.406486        -0.211812
 H         2.077610         3.605906        -0.427915
 H         0.506139         2.501991         0.536154
 H        -0.110355         0.467633        -1.513947
 H        -0.958150         1.958792        -1.240292
 H         0.760423         1.118052        -3.491994
 H         1.529413        -0.423755         0.008890
