19
Iteration:  2117charge 0 multiplicity 1
 C         3.411014         2.563154        -2.916827
 C         2.079069         2.555311        -2.273955
 C         1.999593         2.757899        -0.806434
 C         1.011503         1.830143        -0.161037
 C         0.278647         1.198698        -1.397806
 C         1.034849         1.586130        -2.544981
 O         0.847575         3.000811        -3.003131
 C         1.666870         0.784830         0.599428
 O         1.497331         0.414857         1.729764
 H         4.043305         3.493769        -2.918998
 H         3.947127         1.678755        -2.416995
 H         3.355884         2.380762        -3.967386
 H         3.096777         2.635309        -0.545506
 H         1.849635         3.811096        -0.550289
 H         0.239448         2.342299         0.395093
 H         0.331499         0.036380        -1.436352
 H        -0.784608         1.245860        -1.496567
 H         1.016140         0.856733        -3.463560
 H         2.182314         0.169601        -0.177228
