19
Iteration:  2678
 C         3.220996         2.978530        -3.310241
 C         2.130876         2.522723        -2.411194
 C         2.232526         2.516460        -0.771540
 C         1.121354         1.608878        -0.264853
 C         0.602976         0.910847        -1.520179
 C         1.159621         1.565077        -2.818226
 O         0.822020         3.038234        -2.769740
 C         1.567265         0.629519         0.928132
 O         1.083545         0.761196         2.063391
 H         3.876300         3.835342        -3.040912
 H         3.839704         2.119008        -3.643861
 H         2.792531         3.287872        -4.237278
 H         3.267904         2.449424        -0.389498
 H         2.160962         3.582913        -0.377374
 H         0.268370         2.244248         0.119064
 H         0.798156        -0.146994        -1.433014
 H        -0.550375         0.878304        -1.461987
 H         1.019220         1.021713        -3.736493
 H         2.176236        -0.228965         0.565042
