19
Iteration:  4609
 C         3.252811         3.243046        -3.013083
 C         1.975231         2.753469        -2.327966
 C         1.900583         2.832898        -0.744675
 C         0.957600         1.662969        -0.320688
 C         1.066984         0.681553        -1.487058
 C         1.483179         1.438717        -2.696028
 O         0.650450         2.697134        -2.896295
 C         1.165298         1.234423         1.114269
 O         1.440149         0.110605         1.522019
 H         3.232644         4.358222        -3.145327
 H         4.012946         2.827503        -2.323541
 H         3.481378         2.641739        -3.859578
 H         2.850814         2.579453        -0.228723
 H         1.479552         3.811220        -0.588435
 H        -0.063941         2.124111        -0.415006
 H         1.759686        -0.106095        -1.401266
 H         0.135935         0.178028        -1.581056
 H         1.706833         1.012197        -3.649370
 H         0.903561         2.071031         1.901890
