19
Iteration:   606charge 0 multiplicity 1
 C         3.126855         2.840915        -3.550276
 C         2.183756         2.390267        -2.419839
 C         2.733737         1.806557        -1.163374
 C         1.363027         1.512657        -0.346672
 C         0.257515         1.081742        -1.413478
 C         0.830236         1.873356        -2.633090
 O         1.096689         3.265584        -2.270493
 C         1.509465         0.710113         0.980512
 O         0.824665         1.011079         1.946248
 H         4.036757         3.331281        -3.196691
 H         3.393108         1.901600        -4.074327
 H         2.612459         3.295343        -4.328390
 H         3.417205         1.000616        -1.454106
 H         3.108678         2.599256        -0.529664
 H         1.206966         2.539098         0.010461
 H         0.109258         0.106138        -1.662908
 H        -0.769043         1.429182        -1.146122
 H         0.518261         1.727716        -3.782634
 H         2.134395        -0.308891         0.968457
