19
Iteration:  4892charge 0 multiplicity 1
 C         3.419311         2.892773        -2.365420
 C         1.993986         2.513583        -1.985333
 C         1.363159         3.077876        -0.773256
 C         0.510502         1.921219        -0.136415
 C         0.316391         0.892594        -1.386198
 C         1.378123         1.191133        -2.370491
 O         1.074060         2.450222        -3.120396
 C         1.448692         1.292389         0.890545
 O         2.212465         0.425530         0.505712
 H         3.588281         3.938536        -2.755798
 H         4.092753         2.755549        -1.426236
 H         3.933997         2.216891        -3.098467
 H         2.233353         3.232349        -0.110028
 H         0.612315         4.030589        -0.907143
 H        -0.473462         2.244927         0.170702
 H         0.343276        -0.184505        -0.890826
 H        -0.736640         1.016465        -1.696978
 H         1.804553         0.331390        -2.971297
 H         1.460791         1.616205         2.014361
