19
Iteration:  3403charge 0 multiplicity 1
 C         3.188225         3.075454        -3.248424
 C         2.182427         2.598851        -2.269749
 C         2.135948         2.632762        -0.767682
 C         1.053929         1.614252        -0.302291
 C         0.651219         0.770250        -1.498072
 C         1.195139         1.528106        -2.671711
 O         0.795400         2.884095        -2.878616
 C         1.513571         0.734755         0.824316
 O         1.181289         0.753281         1.977889
 H         3.377959         4.121292        -3.133180
 H         4.099143         2.539021        -2.937920
 H         2.824438         2.882733        -4.185027
 H         3.107377         2.159422        -0.388273
 H         1.884773         3.732637        -0.440242
 H         0.172120         2.245391        -0.077648
 H         1.091548        -0.229464        -1.608911
 H        -0.375469         0.537263        -1.570156
 H         1.331718         0.921208        -3.551189
 H         2.378620         0.055620         0.547487
