19
Iteration:   220charge 0 multiplicity 1
 C         3.362817         2.190607        -3.196178
 C         2.160360         2.312827        -2.289825
 C         2.337903         2.109142        -0.792514
 C         0.900351         1.985298        -0.173008
 C         0.025960         1.459283        -1.316590
 C         0.747192         1.938887        -2.574329
 O         1.252458         3.341171        -2.585824
 C         1.027835         1.004630         0.903255
 O         1.941931         0.314355         1.203931
 H         4.160870         2.733260        -2.772329
 H         3.638787         1.148334        -3.368657
 H         3.063093         2.634021        -4.243679
 H         2.927855         1.283629        -0.717174
 H         2.897355         2.847395        -0.210951
 H         0.483398         2.917830         0.246174
 H         0.156516         0.388798        -1.379950
 H        -1.038184         1.696367        -1.232378
 H         0.371245         1.596684        -3.490685
 H         0.084809         0.879633         1.570697
