19
Iteration:  1299charge 0 multiplicity 1
 C         3.262300         2.907400        -3.254393
 C         2.139772         2.438822        -2.300122
 C         2.500363         1.775280        -0.969225
 C         1.021336         1.394694        -0.477427
 C         0.400224         0.826085        -1.759627
 C         0.830424         1.837590        -2.706300
 O         0.990456         3.263037        -2.193491
 C         1.369124         0.659626         0.837590
 O         1.286197         1.344168         1.904631
 H         3.753518         3.759756        -2.722858
 H         3.965767         2.140360        -3.344451
 H         2.666223         3.252919        -4.134074
 H         3.186428         0.877972        -1.263500
 H         3.105147         2.394288        -0.355447
 H         0.447580         2.308699        -0.376649
 H         0.900772        -0.092395        -1.914231
 H        -0.706008         0.742921        -1.662198
 H         0.612798         1.770249        -3.762026
 H         1.928252        -0.298479         0.770274
