19
Iteration:  1566
 C         3.439255         2.573322        -2.951025
 C         2.166271         2.460062        -2.253105
 C         1.993318         2.746668        -0.789524
 C         0.908579         1.803066        -0.122729
 C         0.032099         1.417830        -1.395165
 C         0.975299         1.617870        -2.598068
 O         1.011946         2.965776        -3.049162
 C         1.649092         0.556307         0.540822
 O         1.645069         0.441773         1.816024
 H         3.945180         3.500976        -2.692099
 H         4.004285         1.648275        -3.146617
 H         3.115364         2.848194        -3.987485
 H         3.019606         2.676668        -0.423312
 H         1.667856         3.835806        -0.556097
 H         0.436803         2.430163         0.646231
 H        -0.320283         0.436872        -1.251154
 H        -0.809390         1.973309        -1.683767
 H         0.801915         0.774584        -3.287946
 H         2.246885        -0.141440        -0.033572
