19
Iteration:  3715
 C         3.367879         3.040464        -2.765960
 C         2.055192         2.608944        -2.080977
 C         1.779359         2.805959        -0.661510
 C         0.652390         1.747332        -0.316449
 C         0.692720         0.694210        -1.467400
 C         1.336743         1.386020        -2.606106
 O         0.827538         2.708763        -2.952167
 C         0.950705         0.928468         0.911906
 O         2.085814         0.715318         1.163639
 H         3.739666         4.083371        -2.595562
 H         4.198114         2.397218        -2.468510
 H         3.246302         2.711192        -3.852295
 H         2.814453         2.562869         0.031175
 H         1.556144         3.864887        -0.409880
 H        -0.291690         2.203027        -0.201645
 H         1.287927        -0.264171        -1.286803
 H        -0.321365         0.182103        -1.749967
 H         1.717833         0.920195        -3.543869
 H         0.011430         0.628080         1.538754
