19
Iteration:   489charge 0 multiplicity 1
 C         3.103494         2.388316        -3.684691
 C         2.193561         2.421755        -2.463581
 C         2.758627         2.144899        -0.952503
 C         1.450981         1.909708        -0.072486
 C         0.317256         1.444631        -1.160577
 C         0.830690         1.917204        -2.453675
 O         1.043812         3.357147        -2.592446
 C         1.541755         0.696121         0.876194
 O         0.722528         0.389854         1.717887
 H         3.568355         3.407586        -3.771902
 H         3.831810         1.596912        -3.664562
 H         2.398691         2.096548        -4.584850
 H         3.304983         1.235843        -1.115648
 H         3.212684         2.998619        -0.469304
 H         1.186223         2.875953         0.308331
 H         0.435095         0.335334        -1.234723
 H        -0.743388         1.593260        -0.945329
 H         0.342525         1.379551        -3.283802
 H         2.406493         0.084276         0.735702
