19
Iteration:   169charge 0 multiplicity 1
 C         3.355345         2.413240        -3.314449
 C         2.157465         2.374005        -2.315435
 C         2.450839         2.066759        -0.845055
 C         1.049446         2.034842        -0.238230
 C         0.148682         1.322094        -1.353044
 C         0.768024         1.880334        -2.611457
 O         1.135081         3.305283        -2.537735
 C         1.124306         1.223017         1.120801
 O         1.573258         0.072372         1.278311
 H         3.994768         3.286275        -3.074264
 H         3.938458         1.455226        -3.276114
 H         2.986100         2.390495        -4.334286
 H         2.881232         0.990413        -0.816189
 H         3.331131         2.609718        -0.468553
 H         0.631973         3.048486        -0.066966
 H         0.282386         0.226245        -1.347556
 H        -0.885688         1.652640        -1.203281
 H         0.604367         1.457100        -3.669413
 H         0.837269         1.683022         2.115954
