19
Iteration:  2150charge 0 multiplicity 1
 C         3.449624         2.654352        -2.982762
 C         2.089135         2.371337        -2.267389
 C         1.926987         2.848747        -0.743306
 C         1.008273         1.760762        -0.150539
 C         0.142690         1.301407        -1.464262
 C         0.948835         1.519166        -2.626456
 O         0.985997         2.930223        -2.930504
 C         1.802212         0.777809         0.616258
 O         1.486399         0.433904         1.707235
 H         3.838184         3.616096        -2.551182
 H         4.284056         1.925506        -2.660895
 H         3.178267         2.566407        -4.007729
 H         2.961205         2.757821        -0.317313
 H         1.598705         3.877387        -0.779208
 H         0.290683         2.077473         0.593212
 H        -0.070934         0.218412        -1.233233
 H        -0.661090         2.000408        -1.531156
 H         0.687079         0.796698        -3.516259
 H         2.503601         0.139917         0.023084
