19
Iteration:  2416
 C         3.428522         2.794511        -3.145819
 C         2.174362         2.472748        -2.347312
 C         2.169368         2.747301        -0.871291
 C         1.168084         1.780846        -0.213492
 C         0.378925         0.967974        -1.314528
 C         1.014137         1.587404        -2.552800
 O         0.765462         3.057325        -2.852914
 C         1.650059         0.685393         0.700421
 O         1.170629         0.512506         1.763345
 H         3.573008         3.952557        -3.343789
 H         4.222593         2.113788        -2.697196
 H         3.275683         2.379456        -4.219081
 H         3.184480         2.604543        -0.490832
 H         1.980881         3.780142        -0.723549
 H         0.550036         2.394916         0.521814
 H         0.552580        -0.130087        -1.266811
 H        -0.769356         1.241252        -1.206892
 H         0.982841         0.838319        -3.377501
 H         2.233215        -0.111703         0.206676
