19
Iteration:  1440charge 0 multiplicity 1
 C         3.429044         2.476382        -3.022205
 C         2.060372         2.503512        -2.283742
 C         2.159122         2.464364        -0.761572
 C         0.979152         1.630624        -0.276455
 C         0.182030         1.177285        -1.541541
 C         0.896517         1.778152        -2.694582
 O         0.919070         3.198363        -2.783111
 C         1.439632         0.558958         0.661195
 O         1.685285         0.787441         1.853284
 H         3.791754         3.544451        -3.388311
 H         4.268381         2.110406        -2.382935
 H         3.426754         1.971453        -4.058126
 H         3.098124         1.918399        -0.568589
 H         2.289009         3.416278        -0.352974
 H         0.268198         2.266990         0.293013
 H         0.213784         0.052136        -1.696607
 H        -0.883243         1.534028        -1.396361
 H         0.955131         1.472911        -3.715613
 H         1.731238        -0.501457         0.208082
