19
Iteration:  1904
 C         3.190627         3.186201        -3.350759
 C         2.162402         2.482888        -2.478326
 C         2.559095         1.910673        -1.050873
 C         1.268354         1.517470        -0.357026
 C         0.709749         0.665469        -1.584560
 C         0.969139         1.751310        -2.721319
 O         0.758184         3.168692        -2.336246
 C         1.406312         0.769450         0.964636
 O         0.930300         1.067662         1.997672
 H         3.603640         4.083777        -2.843861
 H         3.949672         2.457624        -3.520919
 H         2.725855         3.597838        -4.306818
 H         3.297908         0.964521        -1.073949
 H         3.016057         2.727136        -0.436986
 H         0.549689         2.322465        -0.159646
 H         1.170634        -0.319302        -1.781379
 H        -0.376274         0.465158        -1.556085
 H         0.640602         1.449146        -3.693917
 H         1.775581        -0.295708         0.786508
