19
Iteration:  1460
 C         3.423233         2.517602        -2.985595
 C         2.080721         2.462772        -2.288638
 C         2.107320         2.419160        -0.672841
 C         0.818574         1.585979        -0.217859
 C         0.054337         1.225098        -1.581953
 C         0.926562         1.687485        -2.735202
 O         1.000024         3.295567        -2.851381
 C         1.588056         0.574259         0.630710
 O         1.762355         0.798007         1.849031
 H         3.844827         3.387791        -3.286657
 H         4.185927         2.018965        -2.346354
 H         3.212196         1.823898        -3.862021
 H         3.029052         1.960639        -0.344117
 H         2.154956         3.439570        -0.366755
 H         0.164240         2.267769         0.346680
 H         0.076431         0.100208        -1.739657
 H        -1.004799         1.562512        -1.566655
 H         0.775061         1.220635        -3.686637
 H         1.965344        -0.313831         0.140294
