19
Iteration:  4654charge 0 multiplicity 1
 C         3.168996         3.293355        -2.930023
 C         2.100227         2.599334        -2.184070
 C         1.761313         2.959762        -0.762810
 C         0.815849         1.839338        -0.243201
 C         0.815892         0.721663        -1.315091
 C         1.414191         1.312218        -2.546386
 O         0.929190         2.596431        -3.035491
 C         1.335115         1.250058         1.026040
 O         1.523200         0.079277         1.176652
 H         2.837614         4.377066        -2.866796
 H         4.120110         3.047956        -2.455080
 H         3.348464         2.799494        -3.934079
 H         2.733418         3.103744        -0.191420
 H         1.094662         3.786054        -0.656786
 H        -0.216784         2.075275         0.130567
 H         1.258322        -0.114908        -0.863082
 H        -0.151772         0.398689        -1.559696
 H         1.787284         0.668492        -3.307177
 H         1.593748         1.918275         1.912157
