19
Iteration:   817
 C         3.421538         2.212924        -2.981705
 C         2.098059         2.326882        -2.298995
 C         2.193438         2.618983        -0.777943
 C         0.956035         1.767229        -0.149155
 C         0.005153         1.598517        -1.354440
 C         0.747745         1.778866        -2.691018
 O         1.123911         3.207839        -2.866485
 C         1.515341         0.586543         0.538404
 O         1.735740         0.493397         1.726127
 H         3.914553         3.182602        -2.844466
 H         4.083820         1.525771        -2.641322
 H         3.161133         1.788718        -4.022948
 H         3.191815         2.427544        -0.245380
 H         1.979277         3.671239        -0.701715
 H         0.460841         2.391778         0.631871
 H        -0.453388         0.640490        -1.444814
 H        -0.875522         2.199488        -1.167138
 H         0.580932         1.181000        -3.555646
 H         1.548502        -0.288756        -0.156530
