19
Iteration:  4843charge 0 multiplicity 1
 C         3.386655         3.019918        -2.464554
 C         2.087418         2.548486        -2.052928
 C         1.381130         3.142770        -0.851584
 C         0.556504         1.931824        -0.156633
 C         0.245295         0.977301        -1.367041
 C         1.396792         1.162570        -2.326463
 O         1.086588         2.374078        -3.099584
 C         1.389600         1.159454         0.881170
 O         2.244523         0.313488         0.680976
 H         3.392344         4.130014        -2.389346
 H         4.247996         2.530100        -1.985432
 H         3.614252         2.637953        -3.516652
 H         2.040838         3.631103         0.072400
 H         0.689384         3.905905        -1.030971
 H        -0.399989         2.216010         0.378312
 H        -0.060093        -0.027598        -1.093493
 H        -0.662516         1.349255        -1.825908
 H         1.974346         0.406334        -2.848613
 H         1.157267         1.490917         1.975456
