19
Iteration:  3747
 C         3.291239         3.307501        -2.841204
 C         2.097202         2.569098        -2.184123
 C         1.857768         2.724266        -0.691916
 C         0.726594         1.793467        -0.340938
 C         0.570290         0.748463        -1.440881
 C         1.411963         1.293800        -2.601240
 O         0.890196         2.590587        -2.954158
 C         0.939001         1.012570         0.933508
 O         1.999084         0.540735         1.323028
 H         3.508845         4.384612        -2.498655
 H         4.209065         2.719420        -2.664448
 H         2.943804         3.361442        -3.935018
 H         2.870015         2.511523        -0.255012
 H         1.854022         3.767182        -0.472946
 H        -0.230599         2.268116        -0.225229
 H         1.073229        -0.236828        -1.154994
 H        -0.502840         0.667245        -1.840078
 H         1.755845         0.780537        -3.517795
 H         0.155652         0.879324         1.675583
