19
Iteration:   508charge 0 multiplicity 1
 C         3.008658         2.439358        -3.656766
 C         2.197043         2.469496        -2.373405
 C         2.712785         2.121034        -1.028292
 C         1.473049         1.733142        -0.214666
 C         0.399941         1.304369        -1.214762
 C         0.844081         1.940816        -2.520836
 O         1.073081         3.344009        -2.465619
 C         1.571191         0.741128         0.922065
 O         0.668081         0.545826         1.717661
 H         3.625075         3.357640        -3.849619
 H         3.704506         1.626810        -3.618591
 H         2.355258         2.299037        -4.508955
 H         3.456753         1.177440        -1.122330
 H         3.394396         2.850346        -0.552071
 H         1.038564         2.646806         0.265513
 H         0.146995         0.140793        -1.064315
 H        -0.591249         1.797116        -0.905759
 H         0.507041         1.441599        -3.569990
 H         2.582063         0.063984         0.979830
