19
Iteration:  4195
 C         3.148076         3.469591        -2.918909
 C         2.127920         2.617743        -2.268217
 C         2.114576         2.479992        -0.738873
 C         0.900834         1.610807        -0.369635
 C         0.845998         0.568810        -1.508989
 C         1.399363         1.384289        -2.699022
 O         0.746904         2.696735        -2.900770
 C         1.026259         1.326045         1.053253
 O         1.557791         0.376632         1.524996
 H         2.798018         4.516574        -2.815549
 H         4.211549         3.259507        -2.569362
 H         3.098902         3.327929        -4.089479
 H         3.007144         2.117170        -0.410533
 H         2.211257         3.470140        -0.203914
 H        -0.041365         2.194731        -0.520068
 H         1.585425        -0.170063        -1.422363
 H        -0.192249         0.312286        -1.693122
 H         1.531830         0.739541        -3.568101
 H         0.734360         2.158054         1.729916
