19
Iteration:  1009
 C         3.348371         2.216025        -3.108443
 C         2.188769         2.425394        -2.211782
 C         2.240246         2.808351        -0.817493
 C         1.034206         2.022556        -0.039847
 C         0.128806         1.550980        -1.163917
 C         0.964839         1.668525        -2.443237
 O         0.960164         3.038414        -2.948624
 C         1.710348         0.749978         0.496528
 O         1.317610         0.202395         1.494510
 H         3.959509         3.067419        -3.313893
 H         3.903177         1.438288        -2.484283
 H         3.054217         1.755645        -3.958024
 H         3.205587         2.611077        -0.422724
 H         1.924971         3.864127        -0.805902
 H         0.417284         2.571656         0.648539
 H        -0.342149         0.616078        -0.912960
 H        -0.718451         2.189653        -1.286304
 H         1.003852         0.974413        -3.303214
 H         2.337911         0.363942        -0.413081
