19
Iteration:  1114
 C         3.275060         2.325305        -3.214305
 C         2.126141         2.504189        -2.354670
 C         2.320301         2.601134        -0.742549
 C         1.087948         1.995681        -0.075499
 C         0.346232         1.310929        -1.291533
 C         0.928977         1.757015        -2.582467
 O         0.941057         3.157562        -2.861018
 C         1.597393         0.758127         0.610780
 O         1.214077         0.304984         1.712127
 H         4.023645         3.103263        -3.347120
 H         3.789342         1.510608        -2.885337
 H         2.845029         2.055087        -4.252224
 H         3.181248         2.085880        -0.395453
 H         2.664617         3.566949        -0.504279
 H         0.320549         2.618815         0.402998
 H         0.534110         0.231615        -1.235484
 H        -0.690003         1.716007        -1.229591
 H         0.783432         1.117422        -3.470995
 H         2.448622         0.184217         0.134972
