19
Iteration:  2494charge 0 multiplicity 1
 C         3.262448         2.988360        -3.352858
 C         2.082736         2.505154        -2.417747
 C         2.485074         2.450548        -0.961509
 C         1.335835         1.683829        -0.266849
 C         0.615383         0.844061        -1.431180
 C         0.972096         1.638575        -2.678301
 O         0.736868         3.055371        -2.672681
 C         1.575007         0.826007         0.987936
 O         0.849059         0.581321         1.900210
 H         3.874655         3.763730        -2.719635
 H         3.853724         2.041568        -3.592406
 H         2.783050         3.392218        -4.246188
 H         3.511218         2.177675        -0.780501
 H         2.544678         3.472964        -0.659915
 H         0.582199         2.469760         0.087822
 H         1.027494        -0.168851        -1.524242
 H        -0.470043         0.555116        -1.179665
 H         0.889050         1.047813        -3.618545
 H         2.635727         0.437214         1.079436
