19
Iteration:  4876
 C         3.391195         2.914198        -2.386281
 C         2.033027         2.516667        -2.088073
 C         1.440938         3.108642        -0.662372
 C         0.509093         1.901301        -0.106586
 C         0.308636         0.934220        -1.303240
 C         1.385379         1.278471        -2.333459
 O         1.090288         2.336592        -3.210682
 C         1.345909         1.232327         0.850175
 O         2.209357         0.425478         0.511569
 H         3.437959         3.960258        -2.718812
 H         4.110040         2.748669        -1.567772
 H         3.588530         2.404946        -3.339461
 H         2.129691         3.354539         0.265015
 H         0.780922         3.862064        -0.850439
 H        -0.446356         2.205174         0.408247
 H         0.392025        -0.047926        -0.957075
 H        -0.617327         1.109625        -1.840048
 H         2.082567         0.563108        -2.759605
 H         1.383402         1.600113         1.875756
