19
Iteration:  2740
 C         3.430667         2.857883        -2.960228
 C         2.104272         2.442077        -2.279031
 C         2.114587         2.643314        -0.822127
 C         0.848661         1.757334        -0.327820
 C         0.351465         0.885154        -1.509753
 C         0.995242         1.542350        -2.718544
 O         0.861710         2.973927        -2.870073
 C         1.621455         0.851124         0.718273
 O         1.493222         0.634393         1.911698
 H         3.473777         3.935456        -2.813036
 H         4.192285         2.322877        -2.361608
 H         3.445041         2.759370        -4.076276
 H         3.014872         2.169532        -0.427159
 H         2.056322         3.834389        -0.618431
 H        -0.035230         2.429539         0.091039
 H         0.661031        -0.205358        -1.487005
 H        -0.783438         0.870651        -1.606786
 H         1.065778         0.944640        -3.752678
 H         2.209003         0.069627         0.212225
