19
Iteration:  1249
 C         3.211883         2.976608        -3.361801
 C         2.192922         2.411390        -2.448219
 C         2.597938         1.938800        -1.044867
 C         1.267106         1.467580        -0.337530
 C         0.384322         0.890116        -1.550398
 C         0.851488         1.840859        -2.682329
 O         1.007086         3.216548        -2.354298
 C         1.201181         0.629614         0.861731
 O         1.170682         1.122512         2.000247
 H         3.571093         3.958395        -3.009906
 H         4.045793         2.217786        -3.274782
 H         2.735002         3.014016        -4.292021
 H         3.227951         1.101534        -1.150712
 H         3.167270         2.695363        -0.423818
 H         0.739066         2.391934        -0.039230
 H         0.792686        -0.150800        -1.743464
 H        -0.693290         0.891100        -1.466510
 H         0.556448         1.734566        -3.756984
 H         1.103917        -0.500391         0.639520
