19
Iteration:  2838charge 0 multiplicity 1
 C         3.450131         2.807203        -2.741345
 C         2.096768         2.397499        -2.261738
 C         1.888590         2.832321        -0.756576
 C         0.747276         1.834757        -0.214147
 C         0.219431         1.081608        -1.500000
 C         1.039758         1.469822        -2.716234
 O         0.966375         2.812692        -2.975362
 C         1.605410         0.777268         0.557662
 O         1.773013         0.621291         1.751340
 H         3.632468         3.871637        -2.500695
 H         4.170807         2.035135        -2.328105
 H         3.405341         2.866892        -3.881591
 H         2.870715         2.733244        -0.302232
 H         1.599604         3.872479        -0.739405
 H        -0.153098         2.227937         0.464610
 H         0.342606        -0.033681        -1.336475
 H        -0.908482         1.036284        -1.515244
 H         1.171041         0.620598        -3.572653
 H         2.058525         0.031192        -0.091019
