19
Iteration:  3319
 C         2.971572         3.248485        -3.423765
 C         2.128141         2.584823        -2.358217
 C         2.598009         2.350599        -0.981316
 C         1.357593         1.620497        -0.250880
 C         0.866944         0.724332        -1.370575
 C         1.168581         1.510809        -2.729813
 O         0.740128         2.872092        -2.542706
 C         1.540465         0.919396         1.045199
 O         0.585668         0.714493         1.791644
 H         3.066016         4.329513        -3.040860
 H         3.941277         2.838909        -3.868736
 H         2.509363         3.343547        -4.386303
 H         3.522013         1.828415        -0.962986
 H         2.936001         3.208864        -0.478337
 H         0.673487         2.394236        -0.146610
 H         1.572059        -0.156787        -1.436975
 H        -0.187776         0.360195        -1.347105
 H         1.105377         1.006366        -3.694047
 H         2.615798         0.564318         1.258879
