19
Iteration:  4307
 C         3.313917         3.188631        -3.015762
 C         2.022322         2.750403        -2.297727
 C         1.874212         3.005451        -0.791505
 C         0.973298         1.745558        -0.317061
 C         1.072328         0.586266        -1.367813
 C         1.367845         1.438501        -2.613593
 O         0.695470         2.660011        -2.867620
 C         1.340302         1.225850         1.067252
 O         1.259695         0.075611         1.375154
 H         3.309402         4.317028        -2.830160
 H         4.058835         2.506644        -2.568547
 H         3.243426         2.913152        -4.230191
 H         2.848565         3.059390        -0.396090
 H         1.199359         3.900455        -0.588278
 H        -0.126679         1.987204        -0.220850
 H         1.910311        -0.094232        -1.065189
 H         0.085930         0.073324        -1.496881
 H         1.642540         0.897751        -3.561873
 H         1.540690         1.966251         1.887186
