19
Iteration:  3538charge 0 multiplicity 1
 C         3.362189         2.787798        -2.668264
 C         2.006355         2.579108        -2.251640
 C         1.755926         2.875726        -0.722776
 C         0.818725         1.500261        -0.299281
 C         0.404046         0.757980        -1.578115
 C         1.197185         1.556598        -2.782403
 O         0.862714         2.904268        -3.055245
 C         1.592221         0.626094         0.658822
 O         1.809926         0.976644         1.795524
 H         3.666065         3.824933        -2.759319
 H         4.052804         2.340007        -1.982738
 H         3.463778         2.451425        -3.619870
 H         2.662199         2.918544         0.011397
 H         1.137227         3.764032        -0.535419
 H         0.082838         1.841649         0.327856
 H         0.860745        -0.181286        -1.401799
 H        -0.661125         0.824110        -1.777709
 H         1.449443         0.912499        -3.589496
 H         1.471111        -0.368891         0.225343
