19
Iteration:   111
 C         3.245748         2.508339        -3.461012
 C         2.188265         2.443366        -2.395391
 C         2.599896         2.287166        -0.947025
 C         1.251652         1.923179        -0.162249
 C         0.388291         1.241064        -1.267192
 C         0.923274         1.754511        -2.553841
 O         1.014742         3.239595        -2.443125
 C         1.383820         1.183224         1.152582
 O         0.909205         0.035526         1.281524
 H         3.788192         3.409174        -3.599178
 H         3.971977         1.748363        -3.166421
 H         2.805627         2.278504        -4.505602
 H         3.347846         1.570888        -0.911019
 H         2.973503         3.279107        -0.731191
 H         0.778225         2.889049        -0.006413
 H         0.410872         0.243965        -1.157255
 H        -0.648076         1.497543        -1.198269
 H         0.629317         1.419246        -3.492970
 H         1.951167         1.774873         1.995519
