19
Iteration:  1376
 C         3.252676         2.850270        -3.353537
 C         2.212096         2.495954        -2.308080
 C         2.452021         2.226526        -0.816588
 C         1.064260         1.661490        -0.235401
 C         0.296277         1.066125        -1.554882
 C         1.034450         1.708545        -2.741243
 O         0.926982         3.115899        -2.663092
 C         1.102791         0.607926         0.831894
 O         1.512859         0.833713         2.003806
 H         3.852873         3.696478        -2.820474
 H         3.754795         1.932875        -3.532104
 H         2.771678         3.267122        -4.250914
 H         3.302316         1.459525        -0.811431
 H         2.828136         3.122316        -0.347588
 H         0.469562         2.534117        -0.016033
 H         0.379801         0.024356        -1.771368
 H        -0.790937         1.224850        -1.411657
 H         0.976692         1.185720        -3.723542
 H         1.023738        -0.415685         0.417773
