19
Iteration:  3875
 C         3.171524         3.324803        -3.079657
 C         2.044676         2.648536        -2.260610
 C         2.085435         2.672313        -0.720179
 C         0.900442         1.720568        -0.341020
 C         0.922293         0.617329        -1.454430
 C         1.393108         1.440548        -2.719037
 O         0.785484         2.706828        -2.886130
 C         0.926437         1.224658         1.098855
 O         1.638953         0.305456         1.531549
 H         2.987075         4.404494        -3.066756
 H         4.172457         3.010869        -2.701422
 H         3.208532         3.025669        -4.049030
 H         2.949606         2.001917        -0.408763
 H         1.824716         3.710604        -0.319989
 H        -0.200158         2.123936        -0.415461
 H         1.659571        -0.154917        -1.418106
 H         0.014843         0.112791        -1.456616
 H         1.755705         0.856971        -3.571984
 H         0.091170         1.521449         1.815239
