19
Iteration:  4859charge 0 multiplicity 1
 C         3.428953         2.981143        -2.508339
 C         1.978573         2.584379        -1.981088
 C         1.362660         3.093640        -0.727865
 C         0.502638         1.933553        -0.194537
 C         0.229210         0.973537        -1.331733
 C         1.441764         1.215791        -2.260347
 O         1.115697         2.345543        -3.183351
 C         1.393008         1.182220         0.889308
 O         2.248212         0.349773         0.583897
 H         3.518763         4.087394        -2.466453
 H         4.154425         2.619214        -1.704700
 H         3.682847         2.538807        -3.457586
 H         2.259848         3.382531        -0.267877
 H         0.924836         4.157451        -0.872699
 H        -0.342087         2.386164         0.281202
 H         0.281653        -0.121296        -1.008126
 H        -0.743721         1.134106        -1.847991
 H         1.890792         0.274793        -2.669572
 H         1.115975         1.426359         1.957750
