19
Iteration:  3091
 C         3.403367         2.828215        -3.076227
 C         2.194761         2.484403        -2.288902
 C         1.934179         2.803728        -0.791274
 C         0.834436         1.734245        -0.158892
 C         0.255727         0.944636        -1.490460
 C         1.089866         1.520043        -2.707530
 O         0.926079         2.870299        -2.920545
 C         1.708781         0.913441         0.740083
 O         1.464878         0.449633         1.863181
 H         3.792778         3.916296        -3.112712
 H         4.236300         2.244375        -2.657682
 H         3.261612         2.567941        -4.033491
 H         2.966714         2.828767        -0.120642
 H         1.388020         3.738432        -0.758438
 H        -0.073712         2.375232         0.241726
 H         0.713315         0.020248        -1.403354
 H        -0.803838         1.184097        -1.535456
 H         1.100963         1.062255        -3.621584
 H         2.684456         0.798033         0.231455
