19
Iteration:   210
 C         3.345832         2.245651        -3.167713
 C         2.180110         2.324785        -2.299820
 C         2.461458         2.103315        -0.824756
 C         0.963744         1.994480        -0.219761
 C         0.003370         1.375209        -1.329524
 C         0.699741         1.932075        -2.577711
 O         1.221348         3.309204        -2.539358
 C         0.935111         1.052632         0.990543
 O         1.935377         0.301862         1.136772
 H         4.154390         2.724385        -2.665835
 H         3.639900         1.164217        -3.144269
 H         3.323096         2.614729        -4.272994
 H         2.818263         1.164451        -0.619789
 H         3.099334         2.872759        -0.385596
 H         0.543692         2.987669         0.007150
 H        -0.010289         0.332003        -1.321860
 H        -1.016201         1.724421        -1.221823
 H         0.325301         1.734053        -3.566356
 H         0.145015         1.185654         1.796433
