19
Iteration:  4377
 C         3.116968         3.451794        -2.988217
 C         2.082461         2.727829        -2.257412
 C         1.876985         2.811773        -0.771728
 C         0.940975         1.720898        -0.272907
 C         0.712874         0.710186        -1.485308
 C         1.572888         1.332408        -2.635199
 O         0.837997         2.525343        -2.953817
 C         1.597485         1.161124         0.951752
 O         1.184513         0.158836         1.559617
 H         2.865891         4.590960        -2.817682
 H         4.169694         3.177110        -2.569126
 H         3.224999         3.360860        -4.010198
 H         2.833051         2.575764        -0.331128
 H         1.598226         3.759828        -0.600342
 H        -0.027279         2.139507         0.043696
 H         0.891052        -0.265919        -1.197516
 H        -0.321617         0.887965        -1.787178
 H         1.898793         0.593812        -3.403405
 H         2.268299         1.817381         1.505612
