19
Iteration:  2814
 C         3.452294         2.794018        -2.898776
 C         2.133313         2.548304        -2.279857
 C         1.860003         2.792332        -0.728774
 C         0.847119         1.720145        -0.222648
 C         0.263949         1.023706        -1.461299
 C         1.160154         1.537525        -2.592637
 O         0.891488         2.893532        -3.057750
 C         1.531514         0.677043         0.606716
 O         1.711268         0.643425         1.817349
 H         3.692883         3.845982        -3.023292
 H         4.138067         2.142985        -2.325577
 H         3.401090         2.435787        -4.013361
 H         2.795923         2.807353        -0.081319
 H         1.403408         3.699352        -0.682540
 H         0.023841         2.209228         0.347514
 H         0.104043        -0.087259        -1.415665
 H        -0.762103         1.308802        -1.631464
 H         1.251149         0.730791        -3.418893
 H         1.915084        -0.185984         0.045161
