19
Iteration:  3486
 C         3.376017         2.933694        -2.781623
 C         2.063286         2.534685        -2.193547
 C         1.827186         2.621518        -0.688866
 C         0.771011         1.548277        -0.347725
 C         0.354175         0.773848        -1.680648
 C         1.162554         1.445686        -2.741224
 O         0.903456         2.886158        -2.940008
 C         1.607538         0.761545         0.665712
 O         1.711815         1.002234         1.844720
 H         3.462860         4.065378        -2.610063
 H         4.292515         2.442429        -2.483732
 H         3.245350         2.805936        -3.983061
 H         2.811391         2.512532        -0.079336
 H         1.653081         3.588889        -0.372928
 H        -0.104489         2.041183         0.173877
 H         0.623073        -0.303052        -1.588181
 H        -0.790735         0.932919        -1.797812
 H         1.440862         0.833810        -3.574542
 H         2.162518         0.054610         0.084642
