19
Iteration:   472charge 0 multiplicity 1
 C         3.153849         2.351701        -3.626680
 C         2.184833         2.308681        -2.451307
 C         2.631360         2.272384        -1.010887
 C         1.390635         1.980363        -0.084848
 C         0.353268         1.489009        -1.057978
 C         0.712903         1.949590        -2.522229
 O         1.120501         3.298206        -2.593504
 C         1.552083         0.712897         0.838694
 O         0.794944         0.315708         1.689951
 H         3.619606         3.311757        -3.585188
 H         3.955030         1.550701        -3.509373
 H         2.719437         2.163289        -4.557697
 H         3.116158         1.209904        -0.861737
 H         3.305630         3.188930        -0.858940
 H         0.993309         2.718932         0.660619
 H         0.240767         0.360105        -1.173257
 H        -0.562163         1.944229        -0.631332
 H         0.320059         1.575909        -3.475237
 H         2.459790         0.000682         0.472970
