19
Iteration:  3571
 C         3.417915         2.950293        -2.727621
 C         2.095993         2.562821        -2.199698
 C         1.671175         2.763190        -0.722086
 C         0.728751         1.591726        -0.278580
 C         0.359308         0.891594        -1.582532
 C         1.252071         1.456783        -2.771924
 O         0.871748         2.805256        -3.121863
 C         1.454848         0.700601         0.709164
 O         1.959314         0.866131         1.827069
 H         3.471618         4.014569        -2.486937
 H         4.217327         2.359285        -2.339486
 H         3.442893         2.875395        -3.729156
 H         2.656816         2.702346        -0.105946
 H         1.181694         3.727195        -0.699864
 H        -0.042999         1.984832         0.280282
 H         0.262423        -0.175029        -1.424504
 H        -0.693226         1.042361        -1.796146
 H         1.613436         0.788849        -3.516861
 H         1.426343        -0.448634         0.434941
