19
Iteration:  4528charge 0 multiplicity 1
 C         2.948038         3.602800        -3.075720
 C         2.038867         2.629066        -2.285541
 C         2.315424         2.544056        -0.738921
 C         1.147476         1.663565        -0.337811
 C         1.034298         0.599039        -1.436584
 C         1.516538         1.369809        -2.673108
 O         0.731607         2.564626        -2.862888
 C         0.983992         1.361622         1.063623
 O         1.225185         0.230861         1.505418
 H         3.121196         4.462237        -2.534896
 H         3.935544         3.292677        -3.306242
 H         2.386017         3.876135        -3.880620
 H         3.346502         2.175716        -0.504024
 H         2.377959         3.474821        -0.029529
 H         0.297980         2.389837        -0.585250
 H         1.654502        -0.354902        -1.278163
 H        -0.072514         0.303293        -1.485372
 H         1.804903         0.883075        -3.649204
 H         0.591264         2.107945         1.801417
