19
Iteration:  4157charge 0 multiplicity 1
 C         3.259065         3.224425        -2.961655
 C         2.036745         2.643154        -2.246114
 C         1.964156         2.702098        -0.741660
 C         0.879024         1.602715        -0.390150
 C         1.070107         0.590399        -1.515525
 C         1.335187         1.435602        -2.699805
 O         0.690654         2.774381        -2.788587
 C         0.994119         1.278628         1.041244
 O         1.605759         0.342576         1.476304
 H         3.497734         4.275201        -2.769306
 H         4.114910         2.686538        -2.596333
 H         3.214002         3.085638        -4.017436
 H         2.950339         2.368686        -0.286198
 H         1.596929         3.660891        -0.500531
 H        -0.057574         2.174297        -0.569422
 H         1.798512        -0.291063        -1.413704
 H         0.172786        -0.075849        -1.634318
 H         1.568281         0.990645        -3.692927
 H         0.513827         2.123696         1.663753
