19
Iteration:  1659charge 0 multiplicity 1
 C         3.378040         2.435437        -3.148210
 C         2.145957         2.479312        -2.255734
 C         2.068723         2.906275        -0.760178
 C         0.986113         1.889554        -0.134510
 C         0.200938         1.225606        -1.315370
 C         0.974632         1.660302        -2.552874
 O         0.959974         3.053016        -2.958621
 C         1.781283         0.692780         0.620903
 O         1.363988         0.299474         1.713466
 H         3.580287         3.554378        -3.450100
 H         4.197208         2.001773        -2.525794
 H         3.359748         1.841178        -4.045234
 H         3.027563         3.023013        -0.109752
 H         1.590767         3.912748        -0.751977
 H         0.300532         2.369954         0.581807
 H         0.214579         0.081699        -1.343189
 H        -0.921120         1.596702        -1.371893
 H         0.993778         0.965286        -3.513023
 H         2.621481         0.150566         0.032165
