19
Iteration:  2930
 C         3.559355         2.639266        -2.710216
 C         2.042183         2.571090        -2.235063
 C         1.750962         2.935698        -0.745011
 C         0.848910         1.777460        -0.250559
 C         0.202964         1.088019        -1.413134
 C         0.983671         1.473558        -2.639672
 O         0.947961         2.863345        -3.120058
 C         1.626470         0.706884         0.536452
 O         1.821363         0.581465         1.741297
 H         3.773363         3.699733        -2.939024
 H         4.199324         2.272817        -1.903191
 H         3.621745         2.205422        -3.684763
 H         2.496518         3.100242        -0.036392
 H         0.980243         3.802325        -0.825856
 H         0.058853         2.196872         0.343874
 H         0.375608        -0.008399        -1.310226
 H        -0.898007         1.058332        -1.528687
 H         1.247407         0.847245        -3.386455
 H         2.250699         0.016582        -0.163303
