19
Iteration:  2747charge 0 multiplicity 1
 C         3.455160         2.871895        -2.963506
 C         2.090234         2.417242        -2.278584
 C         2.027498         2.698828        -0.815714
 C         0.860004         1.775689        -0.326708
 C         0.303000         0.890299        -1.526265
 C         1.002216         1.509662        -2.727839
 O         0.883285         3.004198        -2.897387
 C         1.657249         0.781536         0.734532
 O         1.503464         0.653754         1.929003
 H         3.573680         3.980784        -2.949008
 H         4.355807         2.434926        -2.506520
 H         3.618756         2.593239        -4.069231
 H         2.863984         2.216192        -0.228408
 H         2.148477         3.627437        -0.533545
 H         0.062528         2.164401         0.224323
 H         0.555567        -0.182352        -1.347121
 H        -0.737070         0.843946        -1.626874
 H         0.927960         1.052137        -3.680764
 H         2.270620         0.018343         0.094173
