19
Iteration:  4559
 C         3.085395         3.566717        -3.085949
 C         2.108712         2.619472        -2.357511
 C         2.149572         2.566117        -0.747645
 C         0.932939         1.649619        -0.404272
 C         1.065001         0.577775        -1.487396
 C         1.484760         1.381110        -2.764028
 O         0.745668         2.631005        -2.683001
 C         1.023432         1.305979         1.066865
 O         1.315221         0.258726         1.582572
 H         3.009376         4.472045        -2.519898
 H         4.095169         3.272182        -3.194204
 H         2.505386         3.647645        -4.109640
 H         3.035894         1.976756        -0.425057
 H         2.144499         3.664673        -0.294330
 H         0.229448         2.432780        -0.631884
 H         1.804702        -0.260215        -1.072973
 H         0.143075        -0.042240        -1.757972
 H         1.705186         0.957351        -3.737680
 H         0.724801         2.223220         1.737288
