19
Iteration:  3658
 C         3.444809         2.944343        -2.647606
 C         1.999465         2.564283        -2.158162
 C         1.703785         2.742569        -0.697015
 C         0.709097         1.562385        -0.320122
 C         0.476605         0.763210        -1.623371
 C         1.223564         1.442765        -2.710886
 O         0.879655         2.832401        -3.070404
 C         1.126153         0.839773         0.916033
 O         2.205782         0.872166         1.455372
 H         3.589164         4.097168        -2.651974
 H         4.167933         2.579795        -1.821682
 H         3.760332         2.684780        -3.599362
 H         2.614208         2.602688         0.040035
 H         1.073760         3.635318        -0.528029
 H        -0.218746         2.081407         0.032315
 H         0.954740        -0.301495        -1.567363
 H        -0.611921         0.747705        -1.856338
 H         1.395562         0.799059        -3.490849
 H         0.307620         0.105387         1.184905
