19
Iteration:  3829charge 0 multiplicity 1
 C         3.175768         3.204718        -3.015348
 C         2.066394         2.582053        -2.251295
 C         2.025692         2.632368        -0.671938
 C         0.905366         1.709742        -0.427689
 C         1.023710         0.577132        -1.555142
 C         1.315884         1.487648        -2.675784
 O         0.745140         2.744749        -2.677735
 C         0.874920         1.192173         1.002431
 O         1.700836         0.469765         1.448717
 H         2.968154         4.221663        -3.298788
 H         4.105764         3.074447        -2.435863
 H         3.452400         2.683246        -3.873003
 H         3.032197         2.123276        -0.431881
 H         1.684381         3.655892        -0.309027
 H        -0.009905         2.220021        -0.732189
 H         1.885181         0.002565        -1.305189
 H         0.226301        -0.097023        -1.773966
 H         1.440205         1.080267        -3.634368
 H         0.006364         1.572369         1.622542
