19
Iteration:  4320
 C         3.215019         3.217611        -2.972834
 C         2.020735         2.673579        -2.294931
 C         1.803389         2.915081        -0.814987
 C         1.067375         1.720258        -0.271287
 C         1.017256         0.659989        -1.362668
 C         1.408447         1.407022        -2.621424
 O         0.713342         2.728875        -2.982519
 C         1.373755         1.243780         1.080799
 O         1.240132         0.051893         1.425132
 H         3.608406         4.278167        -2.754810
 H         4.200567         2.797800        -2.633961
 H         3.192003         3.139317        -4.091433
 H         2.679501         3.038385        -0.230266
 H         1.321916         3.821406        -0.754215
 H         0.037380         2.141954        -0.198282
 H         1.694025        -0.107452        -1.266942
 H         0.111804         0.043412        -1.310515
 H         1.774242         0.806701        -3.486264
 H         1.813467         2.082090         1.746388
