19
Iteration:  3255charge 0 multiplicity 1
 C         3.068093         3.157846        -3.438484
 C         2.092051         2.537672        -2.462623
 C         2.624423         2.448701        -0.906635
 C         1.452288         1.660061        -0.248681
 C         0.988893         0.674142        -1.338285
 C         1.034985         1.561537        -2.635116
 O         0.667305         2.920447        -2.503079
 C         1.519476         0.948628         0.991472
 O         0.566991         0.667830         1.677446
 H         3.203924         4.182304        -2.926040
 H         3.929355         2.460456        -3.658402
 H         2.425020         3.336990        -4.279437
 H         3.573142         1.845009        -0.967179
 H         2.738693         3.388573        -0.428749
 H         0.504864         2.293294        -0.140254
 H         1.799838        -0.070651        -1.572305
 H        -0.001494         0.355451        -0.891479
 H         0.798277         1.160946        -3.626052
 H         2.460028         0.385103         1.200917
