19
Iteration:   651
 C         3.190507         2.610414        -3.493132
 C         2.159564         2.453683        -2.405927
 C         2.629557         1.932257        -1.031251
 C         1.306305         1.690007        -0.361472
 C         0.401269         1.072350        -1.424992
 C         0.800254         1.926025        -2.642450
 O         1.041368         3.327835        -2.339670
 C         1.273187         0.745462         0.813947
 O         1.081533         0.855666         2.022294
 H         3.692394         3.554546        -3.299962
 H         3.947586         1.859534        -3.623478
 H         2.620286         2.574015        -4.438790
 H         3.073360         0.927930        -1.251083
 H         3.371851         2.584562        -0.636471
 H         0.907892         2.637543        -0.048889
 H         0.724291         0.069960        -1.513839
 H        -0.656410         0.930471        -1.180604
 H         0.340126         1.725363        -3.690357
 H         1.454342        -0.320859         0.367311
