19
Iteration:   600
 C         3.118275         2.833183        -3.547349
 C         2.196483         2.415548        -2.426688
 C         2.754754         1.741636        -1.155415
 C         1.371854         1.473109        -0.315540
 C         0.261537         1.112093        -1.435778
 C         0.827121         1.897259        -2.624608
 O         1.048960         3.277310        -2.280011
 C         1.506373         0.756495         0.981098
 O         0.811547         0.989694         1.948914
 H         4.084616         3.289688        -3.295877
 H         3.359279         1.832775        -4.010687
 H         2.599155         3.468316        -4.399935
 H         3.542213         1.009228        -1.433249
 H         3.408279         2.531389        -0.636714
 H         1.066828         2.481938        -0.000705
 H         0.167156        -0.070286        -1.654901
 H        -0.720162         1.543366        -1.271771
 H         0.653881         1.575677        -3.575013
 H         2.193637        -0.050833         0.930285
