19
Iteration:  1365charge 0 multiplicity 1
 C         3.272783         2.880517        -3.276683
 C         2.155208         2.497291        -2.323482
 C         2.468165         2.172780        -0.866598
 C         1.106291         1.595420        -0.339516
 C         0.359937         1.067780        -1.587808
 C         0.982251         1.682274        -2.729926
 O         0.887359         3.152366        -2.615612
 C         1.156126         0.597082         0.858230
 O         1.464594         0.919458         2.009961
 H         4.167356         3.557777        -3.015415
 H         3.846471         2.090754        -3.715989
 H         2.752314         3.333407        -4.144010
 H         3.175751         1.271918        -0.915616
 H         2.894057         2.860814        -0.176107
 H         0.597029         2.412276         0.168805
 H         0.457242         0.001501        -1.602289
 H        -0.709690         1.365791        -1.657099
 H         0.894733         1.179844        -3.715945
 H         0.861433        -0.508387         0.702922
