19
Iteration:  3074
 C         3.404666         2.746452        -2.942380
 C         2.085426         2.425224        -2.265458
 C         1.838137         2.786134        -0.757804
 C         0.865267         1.746038        -0.270719
 C         0.348644         1.001794        -1.465767
 C         1.070687         1.498426        -2.668566
 O         0.928697         2.964806        -2.970603
 C         1.753567         0.911341         0.706390
 O         1.503215         0.487895         1.827049
 H         3.661818         3.818185        -2.907115
 H         4.334067         2.270011        -2.606271
 H         3.345139         2.605879        -4.169190
 H         2.761926         2.764736        -0.284117
 H         1.470141         3.872861        -0.790925
 H         0.189742         2.116957         0.482968
 H         0.229309        -0.137052        -1.404006
 H        -0.774398         1.118296        -1.667788
 H         1.251226         0.799865        -3.594528
 H         2.799631         0.748544         0.241293
