19
Iteration:  4328
 C         3.200921         3.275353        -2.935086
 C         2.034049         2.642008        -2.276736
 C         1.813608         2.897613        -0.793751
 C         1.053572         1.720137        -0.218807
 C         0.950591         0.728339        -1.427836
 C         1.424565         1.367016        -2.695972
 O         0.763261         2.723234        -3.037797
 C         1.417603         1.203869         1.115847
 O         1.236989         0.080776         1.468694
 H         3.294329         4.383673        -2.651824
 H         4.125577         2.683089        -2.748281
 H         3.007803         3.177594        -4.157644
 H         2.841606         2.971800        -0.437285
 H         1.193897         3.919240        -0.730200
 H        -0.013738         2.053521        -0.071593
 H         1.792097        -0.078978        -1.168310
 H         0.016136         0.102269        -1.468104
 H         1.664332         0.550524        -3.389076
 H         1.900647         1.945681         1.730200
