19
Iteration:  2193
 C         3.471809         2.593060        -2.980731
 C         2.046032         2.605430        -2.273415
 C         1.991227         2.847555        -0.729407
 C         0.908464         1.900974        -0.112437
 C         0.204162         1.316025        -1.341006
 C         0.974669         1.541739        -2.577336
 O         0.948429         2.847035        -3.042797
 C         1.658409         0.686782         0.561710
 O         1.574209         0.357346         1.704010
 H         4.015379         3.592125        -3.051843
 H         4.419776         2.087863        -2.425330
 H         3.121991         2.184429        -3.922872
 H         2.955977         2.667118        -0.342210
 H         1.793571         3.883718        -0.429951
 H         0.108777         2.457703         0.468677
 H         0.108579         0.164037        -1.381834
 H        -0.788926         1.649013        -1.430533
 H         1.303860         0.667797        -3.294051
 H         2.119575         0.083863        -0.313159
