19
Iteration:  2647charge 0 multiplicity 1
 C         3.203982         3.076609        -3.317490
 C         2.152046         2.558142        -2.404665
 C         2.484764         2.375826        -0.881629
 C         1.154641         1.644117        -0.382801
 C         0.656695         0.751227        -1.455651
 C         1.036325         1.540444        -2.714067
 O         0.769233         3.056399        -2.638943
 C         1.489450         0.813110         0.924664
 O         0.962892         0.759285         2.001123
 H         3.685333         4.100970        -3.049315
 H         3.982552         2.272292        -3.468769
 H         2.788975         3.283701        -4.309787
 H         3.394969         1.625675        -0.752324
 H         2.395279         3.268274        -0.327751
 H         0.365893         2.372378        -0.225321
 H         1.295703        -0.188125        -1.453069
 H        -0.427680         0.444204        -1.375923
 H         0.865809         1.185798        -3.687025
 H         2.359721         0.092690         0.682311
