19
Iteration:  3055charge 0 multiplicity 1
 C         3.396477         2.695854        -2.835971
 C         2.022159         2.615542        -2.248347
 C         1.896234         2.861769        -0.786815
 C         0.974394         1.748452        -0.196362
 C         0.286251         1.006046        -1.476650
 C         1.093812         1.512816        -2.665337
 O         0.872038         2.856617        -3.040926
 C         1.803499         0.796973         0.616160
 O         1.491141         0.559870         1.758442
 H         3.715142         3.709360        -2.651489
 H         4.005199         2.028831        -2.205842
 H         3.453371         2.439877        -3.900819
 H         2.879196         2.966831        -0.138920
 H         1.465026         3.821118        -0.590260
 H         0.194862         2.117800         0.396597
 H         0.197124        -0.111637        -1.435288
 H        -0.777855         1.093029        -1.481327
 H         1.277227         0.748241        -3.493247
 H         2.682089         0.285389         0.160364
