19
Iteration:  2958charge 0 multiplicity 1
 C         3.458654         2.705525        -2.701384
 C         2.043082         2.487794        -2.188870
 C         1.807073         2.871274        -0.757142
 C         0.790732         1.797174        -0.249113
 C         0.175352         1.159564        -1.481568
 C         1.120750         1.431310        -2.585561
 O         0.913832         2.782175        -3.007605
 C         1.758994         0.727906         0.465829
 O         1.744805         0.636131         1.664613
 H         3.447177         3.821644        -2.924016
 H         4.161235         2.391578        -1.872317
 H         3.483305         2.216101        -3.678274
 H         2.721636         2.622003         0.006551
 H         1.521884         3.875046        -0.717290
 H        -0.015379         2.168124         0.518942
 H        -0.244916         0.164764        -1.297664
 H        -0.777576         1.462704        -1.930644
 H         1.329769         0.823469        -3.556100
 H         2.565867         0.202626        -0.067093
