19
Iteration:   434
 C         3.228661         2.146723        -3.392145
 C         2.160705         2.320195        -2.410044
 C         2.538045         2.394106        -0.922600
 C         1.321034         1.853679        -0.136245
 C         0.118401         1.617000        -1.161072
 C         0.726649         1.963592        -2.540243
 O         1.069036         3.299773        -2.571866
 C         1.677072         0.648933         0.656318
 O         1.021628         0.379251         1.620713
 H         4.066715         2.918846        -3.399865
 H         3.665250         1.176115        -3.235699
 H         2.760425         2.259556        -4.448908
 H         3.322393         1.689957        -0.848928
 H         3.120529         3.171112        -0.466107
 H         0.892610         2.640116         0.458126
 H        -0.330552         0.675273        -1.058823
 H        -0.639859         2.331333        -0.836196
 H         0.294196         1.433731        -3.447945
 H         2.717477         0.129550         0.411049
