19
Iteration:  4535
 C         2.947860         3.612843        -3.059089
 C         2.097667         2.685191        -2.290243
 C         2.292865         2.551328        -0.709677
 C         1.150843         1.650230        -0.377661
 C         1.019108         0.588730        -1.454197
 C         1.479278         1.361494        -2.668280
 O         0.731243         2.554369        -2.830321
 C         0.961590         1.333459         1.059826
 O         1.250069         0.252339         1.514167
 H         3.128973         4.521594        -2.414338
 H         3.909261         3.139768        -3.297310
 H         2.329276         3.828868        -4.104169
 H         3.234623         1.969369        -0.686833
 H         2.339044         3.503700        -0.137844
 H         0.469481         2.460722        -0.621743
 H         1.590887        -0.351281        -1.138573
 H         0.039509         0.212030        -1.774161
 H         1.796424         0.743026        -3.460077
 H         0.638765         2.246233         1.709144
