19
Iteration:  1160charge 0 multiplicity 1
 C         3.331090         2.453316        -3.292289
 C         2.123331         2.396403        -2.391256
 C         2.307873         2.479101        -0.869014
 C         1.184744         1.725509        -0.244421
 C         0.305899         1.188364        -1.399625
 C         0.833968         1.801360        -2.726955
 O         0.996693         3.257999        -2.626557
 C         1.610828         0.690399         0.805929
 O         1.141199         0.560061         1.862034
 H         3.935299         3.332772        -2.999507
 H         4.044966         1.619939        -3.280347
 H         3.010612         2.627966        -4.301548
 H         3.296971         2.135235        -0.778695
 H         2.413868         3.489034        -0.473802
 H         0.768483         2.476042         0.443457
 H         0.448525         0.121392        -1.516259
 H        -0.672672         1.555390        -1.239210
 H         0.348244         1.371430        -3.651029
 H         2.393099        -0.010876         0.482649
