19
Iteration:  1099charge 0 multiplicity 1
 C         3.288117         2.339625        -3.251207
 C         2.138125         2.493455        -2.242076
 C         2.395256         2.710925        -0.835850
 C         1.123310         1.912506        -0.106865
 C         0.185031         1.390723        -1.275009
 C         0.954312         1.668811        -2.545786
 O         0.966740         3.125888        -2.859231
 C         1.628688         0.747254         0.635925
 O         1.186652         0.293134         1.673283
 H         3.820640         3.298963        -3.244181
 H         4.006213         1.498993        -2.903460
 H         3.012205         2.121166        -4.243836
 H         3.425334         2.277259        -0.562848
 H         2.213563         3.759732        -0.473799
 H         0.679520         2.565506         0.646815
 H        -0.082655         0.292806        -1.145991
 H        -0.880423         1.746714        -1.250798
 H         1.020346         0.987344        -3.387849
 H         2.346648         0.202133         0.021602
