19
Iteration:  3742charge 0 multiplicity 1
 C         3.284608         3.282186        -2.869601
 C         2.103754         2.572770        -2.160956
 C         1.818483         2.710964        -0.715866
 C         0.700148         1.831003        -0.365949
 C         0.609356         0.755076        -1.434050
 C         1.406996         1.286385        -2.601592
 O         0.880093         2.616346        -2.933740
 C         0.922724         0.986664         0.941668
 O         2.044029         0.556220         1.295432
 H         3.567309         4.214450        -2.407619
 H         4.194264         2.665134        -2.620879
 H         3.161867         3.253153        -3.917916
 H         2.690885         2.414398        -0.088271
 H         1.761443         3.792527        -0.343468
 H        -0.285583         2.411335        -0.199134
 H         0.995384        -0.204817        -1.202353
 H        -0.367397         0.563624        -1.764639
 H         1.888460         0.783822        -3.438580
 H         0.049189         0.841679         1.679510
