19
Iteration:  3275charge 0 multiplicity 1
 C         2.919266         3.259730        -3.489018
 C         2.147627         2.544139        -2.371373
 C         2.593822         2.422005        -0.981562
 C         1.424393         1.719961        -0.284716
 C         0.894987         0.690164        -1.388632
 C         1.198517         1.456626        -2.602327
 O         0.765635         2.891369        -2.415166
 C         1.536972         0.852065         1.009624
 O         0.530759         0.723886         1.644088
 H         3.278312         4.306927        -3.163560
 H         3.618668         2.460332        -3.937364
 H         2.240205         3.349850        -4.305448
 H         3.468567         1.844248        -0.884826
 H         2.870770         3.291924        -0.519896
 H         0.800250         2.483073        -0.053593
 H         1.711253        -0.070081        -1.200348
 H        -0.133338         0.412910        -1.215265
 H         0.983096         1.021616        -3.537310
 H         2.378256         0.331514         1.492636
