19
Iteration:  3127charge 0 multiplicity 1
 C         3.275441         2.891770        -3.059058
 C         2.053106         2.603682        -2.297075
 C         2.102274         2.765044        -0.789694
 C         1.072527         1.771457        -0.165351
 C         0.503298         1.013888        -1.355662
 C         1.211786         1.483660        -2.643619
 O         0.788588         2.824704        -2.974235
 C         1.654384         0.752282         0.657917
 O         1.228203         0.553041         1.803042
 H         3.624054         3.920690        -3.068190
 H         3.995756         2.202353        -2.623242
 H         3.165566         2.439706        -4.160697
 H         3.143698         2.706325        -0.545840
 H         1.820526         3.871043        -0.480064
 H         0.351107         2.325261         0.550124
 H         0.634414        -0.073883        -1.253311
 H        -0.632120         0.940458        -1.478623
 H         1.312438         0.811076        -3.558770
 H         2.407976         0.042545         0.217469
