19
Iteration:  4579charge 0 multiplicity 1
 C         3.090165         3.451280        -3.050891
 C         2.094486         2.607451        -2.246198
 C         2.094475         2.662624        -0.759792
 C         0.942797         1.592471        -0.391731
 C         1.101300         0.540451        -1.511032
 C         1.379357         1.438301        -2.698954
 O         0.766348         2.730419        -2.817683
 C         1.062182         1.304818         1.075698
 O         1.358804         0.244659         1.564821
 H         3.157946         4.554868        -2.748330
 H         4.102360         3.086378        -2.793252
 H         2.824859         3.237989        -4.259912
 H         2.991688         2.430535        -0.195398
 H         1.830237         3.699554        -0.469283
 H        -0.080766         1.975355        -0.552271
 H         1.987529        -0.146465        -1.515615
 H         0.252335        -0.139296        -1.468167
 H         1.493114         0.999589        -3.663326
 H         0.831631         2.117859         1.730918
