19
Iteration:  4351charge 0 multiplicity 1
 C         3.194431         3.429782        -2.985572
 C         2.092830         2.699407        -2.281859
 C         1.872468         2.890802        -0.786291
 C         0.945792         1.765199        -0.273432
 C         0.787138         0.663801        -1.446459
 C         1.444862         1.377618        -2.668397
 O         0.802256         2.595366        -3.078888
 C         1.474344         1.138015         1.080707
 O         1.253892         0.065534         1.612296
 H         3.208552         4.537237        -2.606727
 H         4.214000         2.996607        -2.726854
 H         3.190512         3.481351        -4.189724
 H         2.822225         2.689104        -0.302639
 H         1.514468         3.998318        -0.645745
 H        -0.073309         2.204644        -0.163115
 H         1.256160        -0.363562        -1.175483
 H        -0.304887         0.408632        -1.546799
 H         1.910833         0.646619        -3.348052
 H         2.186428         1.828564         1.522570
