19
Iteration:  4968charge 0 multiplicity 1
 C         3.440422         2.819414        -2.227715
 C         1.870147         2.620914        -2.087022
 C         1.175270         3.186652        -0.821843
 C         0.651722         1.863479        -0.179297
 C         0.304841         0.958001        -1.383108
 C         1.285546         1.298192        -2.463768
 O         1.075900         2.449467        -3.287519
 C         1.637418         1.272565         0.830307
 O         2.237082         0.219152         0.832979
 H         3.824742         3.887472        -2.216113
 H         4.135836         2.359353        -1.445579
 H         3.894126         2.614014        -3.248618
 H         1.982810         3.571506        -0.192624
 H         0.382180         3.853740        -1.263683
 H        -0.188045         2.035884         0.520117
 H         0.395197        -0.111717        -1.059165
 H        -0.721682         1.117370        -1.689477
 H         1.740464         0.363789        -2.890092
 H         1.765771         1.963011         1.724747
