19
Iteration:  4066charge 0 multiplicity 1
 C         3.210829         3.397532        -2.841522
 C         2.052603         2.521176        -2.210525
 C         1.923663         2.865872        -0.735129
 C         0.804307         1.883286        -0.331717
 C         0.695353         0.723871        -1.476318
 C         1.541237         1.261987        -2.560026
 O         0.792264         2.516843        -2.926635
 C         1.312896         1.331639         1.037883
 O         1.564302         0.143869         1.236845
 H         2.852037         4.376501        -2.803947
 H         4.055963         3.267547        -2.336648
 H         3.205070         2.899457        -3.849276
 H         2.968535         2.595849        -0.382450
 H         1.611369         3.874864        -0.666027
 H        -0.226210         2.328469        -0.122619
 H         0.975978        -0.224149        -0.978123
 H        -0.301813         0.435307        -1.959628
 H         1.904783         0.653730        -3.363694
 H         1.339599         1.975789         1.915819
