19
Iteration:   890
 C         3.444825         2.223071        -3.035252
 C         2.170277         2.278508        -2.178616
 C         2.126979         2.863214        -0.758086
 C         0.985762         1.978402        -0.112804
 C        -0.036726         1.635494        -1.268537
 C         0.804247         1.736269        -2.479592
 O         1.150644         3.023682        -2.889501
 C         1.503994         0.572555         0.388589
 O         1.657229         0.331854         1.572408
 H         3.879402         3.246598        -3.029983
 H         4.353930         1.402491        -2.777447
 H         3.121387         1.931040        -3.965309
 H         3.181966         2.882825        -0.525037
 H         1.722579         3.889854        -0.899086
 H         0.533561         2.366991         0.769490
 H        -0.554458         0.616543        -1.086533
 H        -0.909041         2.346744        -1.312910
 H         0.679808         0.961116        -3.274215
 H         1.665327        -0.174394        -0.465641
