19
Iteration:  2384charge 0 multiplicity 1
 C         3.297388         2.742197        -3.093148
 C         2.100227         2.498398        -2.323138
 C         2.110563         2.753607        -0.800450
 C         1.096922         1.799728        -0.159045
 C         0.295136         1.150077        -1.378630
 C         1.042138         1.555354        -2.675085
 O         0.907269         3.032286        -3.006229
 C         1.706643         0.709895         0.774150
 O         1.299903         0.369618         1.871565
 H         3.586336         3.836348        -3.364690
 H         4.266817         2.397261        -2.670159
 H         3.135352         2.159536        -4.037883
 H         3.107705         2.384287        -0.476803
 H         1.962832         3.808184        -0.667758
 H         0.340056         2.345308         0.510605
 H         0.166796         0.076494        -1.199774
 H        -0.677590         1.741593        -1.690171
 H         1.142639         0.872157        -3.552691
 H         2.437282         0.045151         0.201755
