19
Iteration:  4791charge 0 multiplicity 1
 C         3.371306         2.882848        -2.408456
 C         1.978427         2.610465        -2.140860
 C         1.410564         3.096252        -0.769863
 C         0.609389         1.853934        -0.232103
 C         0.374337         0.793041        -1.373147
 C         1.341278         1.309354        -2.409070
 O         0.999482         2.553623        -3.219800
 C         1.542918         1.309613         0.848027
 O         2.085488         0.239665         0.901529
 H         3.484656         3.984457        -2.450874
 H         4.049360         2.511371        -1.529349
 H         3.715160         2.378171        -3.279161
 H         2.121773         3.354499        -0.023595
 H         0.842056         4.010160        -0.784164
 H        -0.282697         2.061314         0.333607
 H         0.702675        -0.101479        -0.961461
 H        -0.638784         0.612572        -1.794799
 H         1.945509         0.670086        -3.121825
 H         1.758795         2.145171         1.511567
