19
Iteration:  4358charge 0 multiplicity 1
 C         3.249974         3.508310        -2.997777
 C         2.078290         2.674752        -2.284904
 C         1.875947         2.856749        -0.798873
 C         0.940612         1.728741        -0.284289
 C         0.734167         0.688157        -1.445369
 C         1.503852         1.339836        -2.611505
 O         0.782351         2.593601        -3.061886
 C         1.446287         1.155256         1.026168
 O         1.259471         0.079708         1.623388
 H         3.118164         4.485381        -2.739000
 H         4.105055         2.973892        -2.719264
 H         3.058136         3.388507        -4.070256
 H         2.972485         2.792913        -0.427571
 H         1.524511         3.911955        -0.438627
 H        -0.061925         2.123725        -0.085091
 H         1.300567        -0.257139        -1.143164
 H        -0.322894         0.620375        -1.714772
 H         1.891944         0.599579        -3.341365
 H         2.360589         1.744157         1.470584
