19
Iteration:  3649charge 0 multiplicity 1
 C         3.386999         2.996341        -2.622796
 C         2.056994         2.535185        -2.171410
 C         1.680991         2.702925        -0.683772
 C         0.725989         1.615541        -0.303481
 C         0.411490         0.759170        -1.629891
 C         1.246687         1.417841        -2.691845
 O         0.905698         2.838043        -3.085527
 C         1.168992         0.768484         0.820433
 O         2.178396         0.916635         1.501183
 H         3.538478         4.065885        -2.593252
 H         4.114577         2.565981        -1.989776
 H         3.441779         2.593306        -3.598576
 H         2.672211         2.672992        -0.060690
 H         1.428019         3.696466        -0.423779
 H        -0.156521         2.007197         0.079442
 H         0.652304        -0.318262        -1.484088
 H        -0.650429         0.907756        -1.958692
 H         1.573008         0.744146        -3.449712
 H         0.504112         0.061642         1.229756
