19
Iteration:  2090charge 0 multiplicity 1
 C         3.396364         2.591571        -3.066186
 C         2.118216         2.548882        -2.239306
 C         2.113421         2.801718        -0.727850
 C         0.936145         1.826529        -0.199281
 C         0.258855         1.101365        -1.436612
 C         0.980900         1.602125        -2.677970
 O         0.909926         3.043071        -2.948393
 C         1.584814         0.758702         0.667579
 O         1.497459         0.390592         1.836778
 H         3.891361         3.510724        -3.289086
 H         4.069394         1.854037        -2.657098
 H         3.162233         2.213308        -4.129060
 H         3.060797         2.782066        -0.356212
 H         1.791658         3.859194        -0.651801
 H         0.107743         2.371878         0.340054
 H         0.542051         0.051981        -1.361567
 H        -0.830972         0.978482        -1.469733
 H         1.250884         0.987245        -3.455055
 H         2.346802         0.295477         0.005462
