19
Iteration:  4756charge 0 multiplicity 1
 C         3.453194         2.880622        -2.522298
 C         2.021665         2.635097        -2.168248
 C         1.341691         3.164179        -0.847307
 C         0.700284         1.847260        -0.240306
 C         0.486978         0.696025        -1.401655
 C         1.412927         1.337335        -2.524750
 O         0.894804         2.635322        -3.085101
 C         1.561865         1.306356         0.936946
 O         1.939711         0.154094         1.024952
 H         3.496522         3.979024        -2.694023
 H         3.956667         2.699222        -1.530748
 H         3.911803         2.407191        -3.499510
 H         2.011569         3.608699        -0.075388
 H         0.549837         3.752761        -1.164685
 H        -0.239431         2.150445         0.309505
 H         0.812682        -0.224602        -1.124604
 H        -0.563748         0.674826        -1.613600
 H         1.693502         0.492837        -3.176534
 H         1.869474         2.011945         1.734350
