19
Iteration:  4031charge 0 multiplicity 1
 C         3.277552         3.321756        -2.867215
 C         2.080225         2.661052        -2.207812
 C         1.721314         2.851144        -0.790640
 C         0.826359         1.747469        -0.302842
 C         0.718206         0.708646        -1.383406
 C         1.402567         1.281546        -2.569461
 O         0.853600         2.663229        -3.100870
 C         1.427423         1.274182         1.049407
 O         1.537294         0.081955         1.370883
 H         3.008764         4.214875        -3.382837
 H         4.128911         3.521568        -2.316681
 H         3.604682         2.761959        -3.687209
 H         2.675580         2.939034        -0.123498
 H         1.316777         3.880333        -0.614602
 H        -0.124067         2.200366         0.122037
 H         1.278622        -0.158978        -1.146930
 H        -0.299402         0.484075        -1.691942
 H         1.734574         0.545674        -3.322281
 H         1.555558         2.116709         1.714603
