19
Iteration:  1607charge 0 multiplicity 1
 C         3.467475         2.412815        -2.903925
 C         2.083659         2.479931        -2.245218
 C         2.023416         2.749798        -0.810466
 C         0.983190         1.915459        -0.147369
 C         0.142905         1.300545        -1.367017
 C         0.961162         1.601135        -2.588675
 O         0.896055         3.027268        -2.889844
 C         1.708455         0.776309         0.457055
 O         1.527936         0.389876         1.668093
 H         3.813544         3.508976        -3.136756
 H         4.095289         1.783701        -2.261987
 H         3.465366         2.111522        -3.937696
 H         2.993592         2.522155        -0.354921
 H         1.888759         3.800391        -0.717475
 H         0.402602         2.316757         0.672143
 H         0.126855         0.146699        -1.346276
 H        -0.950384         1.594827        -1.370523
 H         0.944585         1.009966        -3.541669
 H         2.568029         0.310847        -0.162624
