19
Iteration:   586
 C         3.122635         2.743085        -3.585221
 C         2.216269         2.420106        -2.400829
 C         2.743325         1.727065        -1.100764
 C         1.422661         1.528672        -0.369300
 C         0.391606         1.146884        -1.444788
 C         0.860324         1.910763        -2.634973
 O         0.942497         3.306676        -2.298928
 C         1.503741         0.775396         0.977870
 O         0.781545         0.938648         1.951933
 H         3.962092         3.247914        -3.141983
 H         3.414291         1.988549        -4.208240
 H         2.565050         3.477460        -4.192267
 H         2.871500         0.708350        -1.405319
 H         3.487770         2.178680        -0.525192
 H         1.082385         2.511087        -0.039139
 H         0.314383         0.077351        -1.685060
 H        -0.595500         1.408600        -1.045343
 H         0.302747         1.803428        -3.615175
 H         2.445191         0.284075         1.163401
