19
Iteration:   647
 C         3.164698         2.635317        -3.500577
 C         2.212828         2.408421        -2.416270
 C         2.619359         1.901544        -1.064907
 C         1.328467         1.710440        -0.373237
 C         0.363430         1.074693        -1.407998
 C         0.788974         1.928242        -2.627617
 O         1.033659         3.327101        -2.327737
 C         1.295920         0.708979         0.807862
 O         1.053107         0.885197         2.005541
 H         3.712458         3.604149        -3.247633
 H         4.034852         1.791279        -3.622861
 H         2.627355         2.776673        -4.427552
 H         3.246617         0.936689        -1.117931
 H         3.369881         2.631496        -0.514745
 H         0.902783         2.706876        -0.068895
 H         0.956973         0.069452        -1.538799
 H        -0.694948         0.811314        -1.076224
 H         0.307813         1.788988        -3.634615
 H         1.430206        -0.285470         0.456065
