19
Iteration:  4022charge 0 multiplicity 1
 C         3.275971         3.266583        -2.891473
 C         2.027236         2.618624        -2.278833
 C         1.714597         2.963727        -0.803124
 C         0.847772         1.747438        -0.171897
 C         0.739758         0.681209        -1.420805
 C         1.422373         1.396353        -2.617222
 O         0.886814         2.666842        -3.114975
 C         1.385692         1.210306         1.079275
 O         1.541605         0.072346         1.396406
 H         2.989194         4.219998        -3.284262
 H         4.065682         3.507853        -2.259694
 H         3.639854         2.528071        -3.703981
 H         2.621436         3.007456        -0.163379
 H         1.226053         3.901801        -0.787475
 H        -0.175902         2.170272         0.078213
 H         1.315774        -0.233791        -1.143922
 H        -0.333070         0.281255        -1.468845
 H         1.815935         0.757995        -3.390839
 H         1.598942         2.001782         1.876244
