19
Iteration:  2211charge 0 multiplicity 1
 C         3.361888         2.541984        -2.881637
 C         2.092426         2.481558        -2.268328
 C         2.069976         2.906540        -0.777129
 C         0.972776         1.919989        -0.170140
 C         0.234364         1.195466        -1.347755
 C         1.106274         1.539847        -2.530901
 O         0.842606         2.957550        -3.039423
 C         1.588066         0.720326         0.507369
 O         1.562268         0.390069         1.652764
 H         3.748910         3.568422        -3.044883
 H         4.148706         2.170533        -2.174839
 H         3.468263         2.029892        -3.823896
 H         3.013609         2.827475        -0.179326
 H         1.750900         4.013027        -0.566822
 H         0.455195         2.214726         0.829544
 H         0.009277         0.146242        -1.154518
 H        -0.825147         1.550259        -1.462487
 H         1.148925         0.840028        -3.382860
 H         2.071617         0.018033        -0.213666
