19
Iteration:   885
 C         3.443304         2.200936        -3.024958
 C         2.198136         2.266315        -2.171489
 C         2.130053         2.841393        -0.762780
 C         0.938524         1.991724        -0.175341
 C        -0.026225         1.662697        -1.287861
 C         0.812119         1.714026        -2.464596
 O         1.116868         3.052723        -2.881676
 C         1.509753         0.616476         0.405831
 O         1.678167         0.304406         1.570798
 H         3.796573         3.228679        -2.939997
 H         4.243473         1.627354        -2.791041
 H         2.995353         1.814237        -4.037424
 H         3.181047         2.826361        -0.364462
 H         1.998149         3.947305        -0.977963
 H         0.435664         2.275561         0.802186
 H        -0.375288         0.683537        -1.105395
 H        -0.907701         2.277789        -1.302554
 H         0.832405         0.947050        -3.247372
 H         1.603430        -0.255482        -0.261626
