19
Iteration:  2309
 C         3.471310         2.595356        -2.940804
 C         2.085855         2.542905        -2.313579
 C         1.978184         2.922643        -0.777446
 C         1.030579         1.863374        -0.165894
 C         0.260537         1.145833        -1.307629
 C         1.006535         1.552240        -2.647707
 O         0.861730         2.934367        -2.948094
 C         1.723551         0.656010         0.534289
 O         1.442528         0.444854         1.707076
 H         4.134672         3.428764        -2.680662
 H         4.163834         1.858792        -2.621158
 H         3.367446         2.524339        -3.982131
 H         2.999814         2.791291        -0.270808
 H         1.713428         4.055409        -0.659756
 H         0.348586         2.435703         0.561730
 H         0.157893         0.048561        -1.163599
 H        -0.878970         1.377528        -1.264158
 H         0.852703         0.846565        -3.518149
 H         2.169567        -0.164043        -0.096493
