19
Iteration:  2320
 C         3.430638         2.640546        -2.951963
 C         2.099247         2.524142        -2.245339
 C         2.064764         2.877883        -0.845596
 C         1.034098         1.880169        -0.244297
 C         0.251982         1.147480        -1.345102
 C         0.963366         1.495274        -2.530150
 O         0.914641         2.937301        -2.899151
 C         1.672297         0.679675         0.548305
 O         1.436184         0.453413         1.677166
 H         3.846295         3.633133        -2.722827
 H         3.803919         1.733737        -2.569050
 H         3.390534         2.546944        -3.983425
 H         3.102516         2.948207        -0.359587
 H         1.512066         3.919814        -0.800345
 H         0.334281         2.192509         0.628267
 H         0.470872         0.075279        -1.205460
 H        -0.855049         1.499651        -1.406715
 H         0.916216         0.916027        -3.509002
 H         2.246674        -0.049313        -0.124300
