19
Iteration:  3126
 C         3.268733         2.880996        -3.060573
 C         2.056999         2.594174        -2.306599
 C         2.086376         2.766621        -0.785466
 C         1.067209         1.770040        -0.168814
 C         0.502182         1.017363        -1.358172
 C         1.217654         1.483452        -2.638031
 O         0.792383         2.829808        -2.972130
 C         1.658601         0.754989         0.661659
 O         1.233476         0.550601         1.804856
 H         3.630045         3.911754        -3.074378
 H         4.010021         2.222437        -2.627164
 H         3.192251         2.477936        -4.130367
 H         3.175637         2.702857        -0.554624
 H         1.808491         3.863049        -0.474879
 H         0.321962         2.344543         0.539828
 H         0.609727        -0.045421        -1.274163
 H        -0.618039         0.929087        -1.469106
 H         1.318033         0.853583        -3.543620
 H         2.410803         0.052046         0.186308
