19
Iteration:   548
 C         3.139364         2.637505        -3.593462
 C         2.139333         2.300129        -2.538920
 C         2.704426         1.932664        -1.131611
 C         1.402210         1.724010        -0.357147
 C         0.436330         1.053388        -1.272783
 C         0.676620         1.922502        -2.500304
 O         1.138475         3.340381        -2.248442
 C         1.516882         0.848648         0.919032
 O         0.699818         0.753158         1.818256
 H         3.911574         3.318389        -3.206421
 H         3.747560         1.706059        -3.955271
 H         2.706844         3.239089        -4.405438
 H         3.343786         1.098195        -1.364590
 H         3.526003         2.491178        -0.565011
 H         1.045357         2.734550        -0.048301
 H         0.636130         0.053994        -1.529514
 H        -0.572029         1.236314        -0.927285
 H         0.080982         1.892656        -3.368053
 H         2.534310         0.335912         1.009299
