19
Iteration:  1918
 C         3.212432         3.100949        -3.306828
 C         2.108705         2.550450        -2.347835
 C         2.567490         2.047386        -1.020400
 C         1.220471         1.481766        -0.385387
 C         0.694859         0.724415        -1.642495
 C         0.845581         1.721544        -2.765014
 O         0.819783         3.103722        -2.356570
 C         1.394109         0.711856         0.930233
 O         0.951115         1.076268         2.005746
 H         3.662492         3.922507        -2.821474
 H         4.036692         2.390811        -3.602413
 H         2.749767         3.290693        -4.269494
 H         3.184126         1.166595        -1.376805
 H         3.332424         2.633847        -0.443416
 H         0.649704         2.442897        -0.160550
 H         1.576411        -0.002381        -1.832786
 H        -0.239345         0.286137        -1.513679
 H         0.497015         1.646756        -3.726804
 H         2.241628        -0.084800         0.872209
