19
Iteration:  2902
 C         3.394547         2.573041        -2.754587
 C         2.040518         2.558520        -2.181286
 C         1.669140         2.913243        -0.769174
 C         0.853334         1.687448        -0.174755
 C         0.226910         1.095900        -1.485923
 C         1.087807         1.466171        -2.686970
 O         1.004781         2.958303        -3.141255
 C         1.677286         0.731797         0.598275
 O         1.812143         0.602124         1.797856
 H         3.782315         3.610366        -2.772774
 H         4.175760         1.973566        -2.251066
 H         3.294902         2.376410        -3.904879
 H         2.519341         3.210302        -0.002895
 H         0.987227         3.718342        -0.853461
 H         0.023922         2.068835         0.504673
 H         0.230373        -0.023249        -1.433366
 H        -0.777972         1.496122        -1.650641
 H         1.662741         0.856243        -3.508046
 H         2.225793         0.045343        -0.156007
