19
Iteration:   546charge 0 multiplicity 1
 C         3.146934         2.627444        -3.594216
 C         2.150545         2.294264        -2.537403
 C         2.698149         1.938894        -1.126632
 C         1.408743         1.717661        -0.348098
 C         0.435662         1.065296        -1.267092
 C         0.667643         1.949431        -2.505537
 O         1.131903         3.334768        -2.246013
 C         1.520724         0.851493         0.922064
 O         0.696780         0.744154         1.805665
 H         3.922807         3.335286        -3.237862
 H         3.731287         1.680600        -3.934920
 H         2.638752         3.218088        -4.502487
 H         3.384804         1.103520        -1.378232
 H         3.452460         2.610248        -0.533011
 H         1.054523         2.730665        -0.103657
 H         0.625785        -0.049985        -1.447181
 H        -0.554312         1.292229        -0.933485
 H         0.130784         1.841335        -3.361303
 H         2.568455         0.270849         1.015028
