19
Iteration:  3304charge 0 multiplicity 1
 C         2.900458         3.327212        -3.526452
 C         2.182977         2.547354        -2.377335
 C         2.701515         2.375417        -0.848042
 C         1.439923         1.707571        -0.305234
 C         0.863402         0.669922        -1.476823
 C         1.193917         1.480197        -2.631322
 O         0.716157         2.830043        -2.494870
 C         1.507885         0.921481         1.012604
 O         0.551858         0.700912         1.766675
 H         3.256002         4.280334        -3.270701
 H         3.702706         2.626826        -3.679332
 H         2.160761         3.379695        -4.357685
 H         3.533236         1.575639        -0.842035
 H         2.924984         3.410795        -0.285556
 H         0.672186         2.556753        -0.200406
 H         1.306797        -0.296833        -1.367549
 H        -0.199406         0.724335        -1.278224
 H         1.024534         1.061588        -3.614219
 H         2.397010         0.444810         1.421502
