19
Iteration:  4493charge 0 multiplicity 1
 C         3.118943         3.514708        -3.188704
 C         2.108729         2.701675        -2.338083
 C         2.129887         2.736133        -0.800982
 C         1.007316         1.710686        -0.343633
 C         1.138427         0.648713        -1.374519
 C         1.453801         1.347121        -2.632903
 O         0.725638         2.599241        -2.762068
 C         1.147789         1.255180         1.090148
 O         1.105423         0.092821         1.520237
 H         3.023035         4.445884        -2.787139
 H         4.099686         3.216573        -3.227659
 H         2.823188         3.607848        -4.244044
 H         3.164351         2.441002        -0.508410
 H         1.716520         3.729063        -0.391512
 H        -0.025772         2.111299        -0.412121
 H         2.071854        -0.044059        -1.258281
 H         0.210172         0.009263        -1.353957
 H         1.529107         0.916662        -3.598683
 H         1.393985         2.100015         1.740903
