19
Iteration:  2208charge 0 multiplicity 1
 C         3.369972         2.557755        -2.887294
 C         2.100572         2.517245        -2.241939
 C         2.035431         2.885624        -0.774824
 C         0.980820         1.926203        -0.159715
 C         0.240019         1.222053        -1.339635
 C         1.103986         1.551228        -2.553239
 O         0.851611         2.925987        -3.047900
 C         1.560670         0.703042         0.522254
 O         1.573604         0.386930         1.646178
 H         3.724572         3.537073        -3.112959
 H         4.009310         2.073818        -2.236681
 H         3.513763         2.013539        -3.855659
 H         3.060906         2.766645        -0.228612
 H         1.759587         3.905561        -0.568328
 H         0.466510         2.296388         0.702307
 H         0.091963         0.172277        -1.101772
 H        -0.845670         1.560123        -1.417907
 H         1.157721         0.874972        -3.324603
 H         2.137420         0.044629        -0.197135
