19
Iteration:  4443charge 0 multiplicity 1
 C         3.164947         3.257374        -3.100583
 C         2.031177         2.736660        -2.289100
 C         1.908694         3.013197        -0.762952
 C         1.076227         1.781586        -0.265329
 C         1.129982         0.686249        -1.384243
 C         1.455454         1.437848        -2.629476
 O         0.646891         2.618398        -2.933476
 C         1.461828         1.086805         1.058614
 O         1.023778         0.047505         1.474460
 H         3.226103         4.410370        -3.498053
 H         4.159091         3.117927        -2.409573
 H         3.385251         2.554048        -3.909622
 H         2.898963         3.048167        -0.326815
 H         1.335634         3.830500        -0.468729
 H         0.036632         2.025862        -0.004538
 H         1.899422        -0.011135        -1.211103
 H         0.231325         0.076321        -1.397955
 H         1.786721         1.096350        -3.634832
 H         2.122298         1.781484         1.698592
