19
Iteration:   555charge 0 multiplicity 1
 C         3.135550         2.656672        -3.579517
 C         2.118493         2.354487        -2.504827
 C         2.720966         1.881430        -1.164639
 C         1.408408         1.716036        -0.319029
 C         0.406945         1.075528        -1.309361
 C         0.722199         1.877613        -2.517534
 O         1.143015         3.339578        -2.265588
 C         1.509035         0.865920         0.917184
 O         0.711295         0.781640         1.844441
 H         3.879630         3.253593        -3.007644
 H         3.659494         1.826531        -4.060445
 H         2.715477         3.360804        -4.436853
 H         3.098261         0.773514        -1.272824
 H         3.580098         2.472452        -0.763012
 H         0.978476         2.644836         0.045515
 H         0.734705        -0.003574        -1.732544
 H        -0.613597         0.959570        -0.915712
 H         0.047419         1.919369        -3.345495
 H         2.549662         0.354545         1.015066
