19
Iteration:  4909
 C         3.481447         2.838037        -2.307328
 C         2.041566         2.503996        -2.028378
 C         1.327040         3.075127        -0.803878
 C         0.508740         1.872643        -0.253803
 C         0.215217         0.855482        -1.327138
 C         1.330678         1.251849        -2.365792
 O         1.037097         2.519554        -3.060163
 C         1.488046         1.284886         0.781606
 O         2.282970         0.389430         0.620911
 H         3.402418         3.850897        -2.683092
 H         4.033572         2.847568        -1.374912
 H         3.938160         2.169975        -3.007117
 H         1.939302         3.729857        -0.152834
 H         0.796220         3.793515        -1.273093
 H        -0.261813         2.298640         0.424110
 H         0.402056        -0.131342        -1.074850
 H        -0.712440         0.897766        -1.891670
 H         1.821198         0.485208        -2.969499
 H         1.414126         1.915033         1.669341
