19
Iteration:  1029
 C         3.416595         2.303875        -3.123432
 C         2.121359         2.501389        -2.344405
 C         2.263120         2.802045        -0.713341
 C         1.176597         2.030481        -0.035622
 C         0.101533         1.620858        -1.177356
 C         0.909329         1.641160        -2.465963
 O         0.939693         2.955519        -3.042948
 C         1.624925         0.699997         0.543237
 O         1.284993         0.162141         1.574841
 H         3.866171         3.315622        -3.200870
 H         4.123571         1.632671        -2.595979
 H         3.176221         1.861617        -4.165358
 H         3.263285         2.306436        -0.652048
 H         2.425162         3.880178        -0.412327
 H         0.540361         2.509629         0.740549
 H        -0.283616         0.643197        -0.984071
 H        -0.764474         2.246968        -1.168531
 H         0.799372         0.811623        -3.230975
 H         2.467876         0.316465        -0.018229
