19
Iteration:  3337
 C         3.092275         3.240045        -3.321827
 C         2.122293         2.536331        -2.493922
 C         2.461969         2.375025        -0.930558
 C         1.337925         1.671433        -0.317311
 C         0.916880         0.645872        -1.439767
 C         1.064842         1.498147        -2.657536
 O         0.697434         2.958845        -2.601759
 C         1.590232         0.921730         1.034924
 O         0.671603         0.717874         1.841733
 H         3.213991         4.264533        -3.059977
 H         4.057577         2.702043        -3.234098
 H         2.812682         3.179951        -4.374449
 H         3.372526         1.652705        -0.859953
 H         2.806119         3.386323        -0.423191
 H         0.407915         2.226112        -0.072413
 H         1.539465        -0.244470        -1.565786
 H        -0.052169         0.252993        -1.274811
 H         0.812756         1.105822        -3.605407
 H         2.631251         0.599245         1.184083
