19
Iteration:   470charge 0 multiplicity 1
 C         3.168469         2.350302        -3.599219
 C         2.177202         2.298233        -2.465922
 C         2.624451         2.272133        -1.014515
 C         1.394936         1.982258        -0.073711
 C         0.333758         1.487095        -1.057429
 C         0.714742         1.945911        -2.531251
 O         1.130561         3.296818        -2.589254
 C         1.558982         0.716979         0.826135
 O         0.806823         0.312012         1.683889
 H         3.624728         3.319508        -3.536745
 H         3.926340         1.530366        -3.505480
 H         2.661811         2.106678        -4.578395
 H         3.079119         1.288395        -0.908058
 H         3.188244         3.226283        -0.843048
 H         0.994182         2.756765         0.591876
 H         0.197870         0.467849        -1.171712
 H        -0.517473         1.937555        -0.611583
 H         0.302642         1.598138        -3.382405
 H         2.438086         0.013184         0.463182
