19
Iteration:  1838charge 0 multiplicity 1
 C         3.218784         3.092811        -3.364733
 C         2.161183         2.537847        -2.412833
 C         2.579889         2.149923        -0.973456
 C         1.229344         1.636708        -0.275688
 C         0.520900         0.824152        -1.521653
 C         0.961063         1.663546        -2.700897
 O         0.845120         3.068491        -2.486649
 C         1.459166         0.748180         0.867016
 O         0.958015         0.838320         2.005239
 H         3.505400         4.148206        -3.350110
 H         4.101214         2.525513        -3.335483
 H         2.759530         3.067420        -4.353696
 H         3.278994         1.267181        -0.974153
 H         2.950109         3.043048        -0.448418
 H         0.645436         2.514888        -0.072815
 H         0.795416        -0.218536        -1.701778
 H        -0.552861         0.733491        -1.437761
 H         0.626932         1.391075        -3.639544
 H         2.036121        -0.194149         0.658665
