19
Iteration:  3219charge 0 multiplicity 1
 C         3.121024         3.018411        -3.356674
 C         2.083145         2.645552        -2.386035
 C         2.380589         2.496216        -0.900476
 C         1.276168         1.647863        -0.303780
 C         0.817836         0.729661        -1.501353
 C         1.125289         1.518846        -2.753283
 O         0.708568         2.979372        -2.548326
 C         1.626786         1.017563         1.059801
 O         0.768192         0.565847         1.809449
 H         3.474230         4.096777        -3.268802
 H         4.148325         2.489359        -3.248664
 H         2.879777         2.974080        -4.411715
 H         3.195470         1.812298        -0.844969
 H         2.687063         3.315411        -0.338649
 H         0.484345         2.240688        -0.070929
 H         1.316606        -0.280389        -1.372589
 H        -0.172452         0.382411        -1.372204
 H         1.012393         1.148640        -3.741123
 H         2.720324         0.822547         1.236251
