19
Iteration:  4901
 C         3.454663         2.885459        -2.302721
 C         2.024435         2.455132        -2.071265
 C         1.356055         3.059574        -0.823294
 C         0.522899         1.931485        -0.175928
 C         0.245280         0.855098        -1.390853
 C         1.329869         1.205079        -2.327851
 O         1.050322         2.518216        -3.064457
 C         1.468277         1.310952         0.819372
 O         2.254946         0.400403         0.570523
 H         3.564159         3.884934        -2.817203
 H         4.157217         2.832688        -1.361393
 H         3.739887         2.171261        -3.034696
 H         2.030885         3.487781         0.019538
 H         0.620174         3.870068        -1.071137
 H        -0.411711         2.223793         0.308105
 H         0.462335        -0.101165        -1.004206
 H        -0.728251         0.915646        -1.869133
 H         2.001538         0.478288        -2.891905
 H         1.467277         1.693500         1.873022
