19
Iteration:  4445charge 0 multiplicity 1
 C         3.147932         3.256395        -3.092305
 C         2.039460         2.738386        -2.283973
 C         1.906238         3.015583        -0.753932
 C         1.095436         1.766412        -0.275350
 C         1.134086         0.698333        -1.386092
 C         1.452111         1.433862        -2.636132
 O         0.645468         2.619529        -2.925086
 C         1.455864         1.096961         1.049000
 O         1.022566         0.049822         1.475697
 H         3.221065         4.314803        -3.493950
 H         4.076905         3.069423        -2.467878
 H         3.417310         2.544798        -3.930321
 H         2.905539         2.998720        -0.309859
 H         1.324633         3.835795        -0.486617
 H         0.057885         2.036892        -0.031246
 H         1.980401         0.007863        -1.195223
 H         0.215054         0.127128        -1.420489
 H         1.833203         1.101322        -3.605888
 H         2.057690         1.764387         1.694151
