19
Iteration:  2276
 C         3.366634         2.572105        -2.934843
 C         2.079557         2.577792        -2.281010
 C         1.961117         2.853913        -0.779765
 C         0.943856         1.792050        -0.183354
 C         0.127211         1.254878        -1.418044
 C         1.006849         1.570991        -2.679925
 O         0.998810         2.949224        -3.046193
 C         1.769635         0.764915         0.661040
 O         1.564525         0.316751         1.836729
 H         3.827027         3.560959        -3.011349
 H         3.869933         1.713834        -2.575426
 H         3.153773         2.386812        -3.952036
 H         2.860452         2.654231        -0.073171
 H         1.761649         3.997618        -0.555388
 H         0.211362         2.420704         0.433581
 H        -0.012712         0.163070        -1.408381
 H        -0.914899         1.668176        -1.704615
 H         1.081244         0.800131        -3.506512
 H         2.673694         0.344677         0.123053
