19
Iteration:  3205
 C         3.182985         3.085445        -3.365168
 C         2.109345         2.562521        -2.336379
 C         2.393533         2.440503        -0.849192
 C         1.145044         1.661223        -0.319282
 C         0.715420         0.726678        -1.468422
 C         1.150172         1.573350        -2.660759
 O         0.750640         2.972659        -2.663062
 C         1.606008         0.981340         0.957369
 O         0.887417         0.548572         1.854338
 H         3.297146         4.116509        -3.255765
 H         4.001394         2.409532        -3.266336
 H         2.651215         2.735044        -4.332825
 H         3.404609         2.113054        -0.640158
 H         2.337375         3.513509        -0.365738
 H         0.312072         2.364496        -0.149475
 H         1.290277        -0.167563        -1.604135
 H        -0.386859         0.622848        -1.446675
 H         1.135388         1.099995        -3.699161
 H         2.672333         1.088170         1.244374
