19
Iteration:  4004charge 0 multiplicity 1
 C         3.270677         3.142181        -2.920784
 C         2.020372         2.717620        -2.232553
 C         1.671619         3.073547        -0.800559
 C         0.882733         1.791041        -0.305471
 C         0.866347         0.780605        -1.412874
 C         1.375714         1.370254        -2.671245
 O         0.825726         2.639210        -3.112712
 C         1.363009         1.144824         1.212990
 O         1.542187        -0.019800         1.429133
 H         3.356792         4.211225        -3.314813
 H         4.225172         3.236118        -2.199690
 H         3.650366         2.439850        -3.794408
 H         2.484188         3.447035        -0.190614
 H         1.005486         3.968060        -0.679596
 H        -0.088213         2.164813        -0.077825
 H         1.535948        -0.109705        -1.165527
 H        -0.179505         0.434660        -1.606273
 H         1.784656         0.638033        -3.390929
 H         1.507729         1.995274         1.931097
