19
Iteration:  1128
 C         3.383871         2.299668        -3.290506
 C         2.157202         2.513748        -2.292272
 C         2.326784         2.624906        -0.832584
 C         1.083235         1.957326        -0.170294
 C         0.287936         1.218024        -1.291818
 C         0.862933         1.787287        -2.615956
 O         0.930594         3.230186        -2.800015
 C         1.575975         0.788888         0.689592
 O         1.210070         0.311874         1.794179
 H         4.019634         3.196756        -3.205983
 H         3.994242         1.374717        -2.973356
 H         3.039075         2.194161        -4.307791
 H         3.161669         1.927015        -0.837971
 H         2.492283         3.605813        -0.319992
 H         0.638144         2.707163         0.506178
 H         0.595136         0.166628        -1.363572
 H        -0.747482         1.065201        -1.185427
 H         0.636102         1.199309        -3.563797
 H         2.350521         0.236085         0.028675
