19
Iteration:  3805charge 0 multiplicity 1
 C         3.234997         3.318697        -2.999895
 C         2.056397         2.624452        -2.276677
 C         2.018741         2.620001        -0.679324
 C         0.826618         1.711376        -0.374199
 C         0.840122         0.595149        -1.515383
 C         1.353016         1.451772        -2.661576
 O         0.770472         2.734248        -2.909931
 C         0.893989         1.136990         1.081207
 O         1.807125         0.427756         1.520927
 H         3.070024         4.382773        -3.024858
 H         4.160368         3.101390        -2.489386
 H         3.515144         2.986943        -4.054589
 H         2.941523         1.968128        -0.473646
 H         1.923518         3.640378        -0.326666
 H        -0.061382         2.200549        -0.609566
 H         1.536204        -0.205035        -1.204315
 H        -0.186174         0.091454        -1.599847
 H         1.759139         0.915779        -3.547305
 H        -0.004064         1.422729         1.685134
