19
Iteration:  4638charge 0 multiplicity 1
 C         3.281359         3.257740        -2.972960
 C         2.024048         2.680448        -2.265880
 C         1.780152         2.984960        -0.710885
 C         0.872769         1.775286        -0.281335
 C         0.869290         0.703463        -1.347794
 C         1.449493         1.349249        -2.568283
 O         0.784691         2.633346        -3.016889
 C         1.272493         1.211516         1.056166
 O         1.505206         0.042199         1.321975
 H         3.097608         4.305404        -3.152875
 H         4.197315         3.071224        -2.358925
 H         3.411397         2.760769        -3.928199
 H         2.701029         2.913432        -0.071214
 H         1.322322         4.063668        -0.731926
 H        -0.091445         2.288154        -0.293285
 H         1.721977        -0.095895        -1.171611
 H        -0.151150         0.145022        -1.383986
 H         1.805163         0.776390        -3.481856
 H         1.325472         1.990279         1.794234
