19
Iteration:  1170
 C         3.327786         2.523488        -3.303041
 C         2.147954         2.443655        -2.367141
 C         2.424074         2.406015        -0.891784
 C         1.197105         1.661952        -0.227848
 C         0.234644         1.220576        -1.431109
 C         0.819025         1.809681        -2.700215
 O         0.972966         3.220274        -2.631910
 C         1.671406         0.638739         0.772464
 O         1.091383         0.655944         1.905839
 H         3.891978         3.440405        -3.100232
 H         3.948939         1.698088        -3.461123
 H         2.869982         2.755536        -4.285997
 H         3.280468         1.854127        -0.585719
 H         2.487904         3.422105        -0.556241
 H         0.476095         2.305285         0.279365
 H         0.273168         0.114874        -1.448376
 H        -0.817370         1.335374        -1.190927
 H         0.890396         1.390194        -3.720828
 H         2.372525        -0.159218         0.515339
