19
Iteration:  2230
 C         3.490154         2.565998        -2.923160
 C         2.080845         2.481893        -2.221234
 C         1.952383         2.896760        -0.801665
 C         0.976470         1.873190        -0.185352
 C         0.148589         1.200285        -1.365475
 C         0.972493         1.508822        -2.601059
 O         0.942960         2.944924        -2.881716
 C         1.709021         0.699399         0.512607
 O         1.532789         0.445461         1.640998
 H         3.723497         3.592169        -3.193066
 H         4.186002         2.099909        -2.327699
 H         3.615053         2.049541        -3.918774
 H         3.019807         2.900294        -0.367391
 H         1.622069         3.927269        -0.725680
 H         0.288528         2.366958         0.474964
 H         0.009574         0.140054        -1.166225
 H        -0.938192         1.585103        -1.341861
 H         1.004544         0.852830        -3.404010
 H         2.476066         0.131373        -0.128587
