19
Iteration:  4907
 C         3.479844         2.856130        -2.293682
 C         2.039497         2.487081        -2.053139
 C         1.341959         3.061154        -0.801443
 C         0.513415         1.889996        -0.239188
 C         0.214216         0.860926        -1.340267
 C         1.331343         1.236605        -2.354832
 O         1.039213         2.523626        -3.056469
 C         1.484654         1.287898         0.786812
 O         2.275840         0.392913         0.608315
 H         3.421631         3.846121        -2.710309
 H         4.034486         2.852611        -1.422268
 H         3.871476         2.112798        -3.052913
 H         1.916013         3.689647        -0.152401
 H         0.721117         3.895293        -1.257852
 H        -0.289429         2.291937         0.428182
 H         0.466528        -0.236110        -1.042058
 H        -0.724860         0.896541        -1.932392
 H         1.878885         0.526502        -2.914250
 H         1.411243         1.888427         1.757046
