19
Iteration:   257charge 0 multiplicity 1
 C         3.274219         2.046068        -3.262835
 C         2.161745         2.456113        -2.269933
 C         2.462796         2.341381        -0.734147
 C         0.957350         1.779976        -0.182311
 C        -0.014423         1.645926        -1.402317
 C         0.764970         1.938117        -2.594289
 O         1.212727         3.376045        -2.657342
 C         0.999863         0.721951         0.829086
 O         1.961705         0.333927         1.471167
 H         4.249579         2.668708        -3.104085
 H         3.543904         0.925556        -3.196993
 H         2.936959         2.189858        -4.278621
 H         3.375341         1.659095        -0.572775
 H         2.626606         3.344057        -0.347177
 H         0.596735         2.581966         0.508120
 H        -0.316994         0.633591        -1.482530
 H        -0.884023         2.311119        -1.396015
 H         0.481396         1.477693        -3.670979
 H        -0.072468         0.317799         0.951204
