19
Iteration:  4154charge 0 multiplicity 1
 C         3.253834         3.207727        -2.955696
 C         2.051602         2.647102        -2.247930
 C         1.942320         2.712993        -0.739321
 C         0.903148         1.615854        -0.383603
 C         1.076965         0.579381        -1.514686
 C         1.316813         1.443253        -2.679870
 O         0.685169         2.770371        -2.797323
 C         0.990606         1.263666         1.035793
 O         1.606108         0.338181         1.472313
 H         3.521272         4.245126        -2.816151
 H         4.104114         2.659142        -2.644151
 H         3.291444         3.132294        -4.131201
 H         3.056677         2.459077        -0.273996
 H         1.584466         3.721979        -0.431845
 H        -0.114399         2.100300        -0.696038
 H         1.778123        -0.262633        -1.356660
 H         0.090746        -0.000515        -1.647765
 H         1.665299         1.066235        -3.636816
 H         0.510665         2.095017         1.682388
