19
Iteration:   597
 C         3.112397         2.809399        -3.563009
 C         2.211023         2.429503        -2.427445
 C         2.764021         1.730425        -1.138966
 C         1.387102         1.463054        -0.309668
 C         0.278243         1.118700        -1.452825
 C         0.830426         1.906555        -2.609015
 O         1.017988         3.285765        -2.284230
 C         1.492302         0.776008         0.969280
 O         0.805659         0.978772         1.954304
 H         4.049595         3.271660        -3.318677
 H         3.379163         1.923846        -3.960846
 H         2.638828         3.504625        -4.292211
 H         3.480318         0.971107        -1.377956
 H         3.490700         2.365637        -0.730949
 H         0.977208         2.428559        -0.036622
 H         0.238697         0.042989        -1.608830
 H        -0.689963         1.583452        -1.262698
 H         0.584590         1.493824        -3.655739
 H         2.324730         0.013216         0.965190
