19
Iteration:  2014
 C         3.335283         2.913027        -3.193484
 C         2.085189         2.603277        -2.416901
 C         2.296079         2.361056        -0.809777
 C         1.065113         1.821888        -0.144031
 C         0.381645         1.032399        -1.424898
 C         1.054938         1.552338        -2.707688
 O         0.840794         3.034457        -2.875997
 C         1.473445         0.717130         0.753883
 O         1.294085         0.580719         1.959052
 H         3.666717         3.903365        -2.891715
 H         4.152969         2.232393        -3.004836
 H         3.202199         2.791807        -4.338230
 H         3.239624         1.883980        -0.584966
 H         2.367284         3.382432        -0.357373
 H         0.446947         2.617233         0.386594
 H         0.820151         0.056697        -1.322585
 H        -0.673113         0.992084        -1.542932
 H         0.829835         1.028761        -3.543369
 H         2.054623        -0.127570         0.222380
