19
Iteration:  1926
 C         3.167656         3.016903        -3.265948
 C         2.086350         2.570524        -2.366842
 C         2.586145         2.077254        -0.989594
 C         1.241251         1.475130        -0.430067
 C         0.668438         0.771523        -1.607812
 C         0.882396         1.754578        -2.767979
 O         0.829174         3.097940        -2.369330
 C         1.433221         0.712535         0.915228
 O         0.964946         1.067146         1.973218
 H         3.597245         3.950216        -2.852932
 H         3.859750         2.198865        -3.328931
 H         2.693790         3.360021        -4.264346
 H         3.271906         1.101930        -1.083974
 H         3.155203         2.826497        -0.328333
 H         0.452087         2.210783        -0.153922
 H         1.370472         0.016831        -2.022986
 H        -0.234324         0.184394        -1.499417
 H         0.657718         1.633748        -3.784581
 H         2.238573        -0.031237         0.868630
