19
Iteration:  4324
 C         3.200271         3.249026        -2.958644
 C         2.031254         2.656394        -2.284692
 C         1.790758         2.899034        -0.806040
 C         1.073838         1.720260        -0.231120
 C         0.977173         0.704555        -1.403173
 C         1.423137         1.385327        -2.663677
 O         0.733769         2.734914        -3.012948
 C         1.389366         1.221626         1.095993
 O         1.238492         0.066295         1.445354
 H         3.494513         4.224541        -2.725736
 H         4.162135         2.806251        -2.709878
 H         3.111723         3.165370        -3.978419
 H         2.857030         2.981575        -0.302214
 H         1.235960         3.882849        -0.781187
 H         0.056377         2.100470        -0.168329
 H         1.740369        -0.141083        -1.198213
 H         0.119430         0.038082        -1.364028
 H         1.712531         0.607716        -3.379985
 H         1.885471         2.064620         1.718499
