19
Iteration:  4460
 C         3.131293         3.211271        -3.108800
 C         1.954506         2.768533        -2.230379
 C         1.931454         2.909359        -0.755337
 C         1.151834         1.690817        -0.314139
 C         1.181578         0.682720        -1.453835
 C         1.475854         1.460845        -2.655715
 O         0.705526         2.640884        -2.822622
 C         1.364254         1.198926         1.093416
 O         1.032888         0.097596         1.429121
 H         2.958353         4.183671        -3.176488
 H         4.004728         3.153935        -2.623993
 H         2.959158         2.742623        -4.077937
 H         2.955422         3.050129        -0.302486
 H         1.520146         4.003929        -0.536087
 H         0.093172         2.032525        -0.384586
 H         2.004672        -0.155894        -1.357091
 H         0.271805         0.017575        -1.456866
 H         1.793096         0.760580        -3.399423
 H         1.892820         1.909260         1.728697
