19
Iteration:  2165
 C         3.368624         2.645996        -2.966157
 C         2.156084         2.406784        -2.216421
 C         1.971390         2.733714        -0.801992
 C         0.938196         1.817373        -0.158897
 C         0.109077         1.322780        -1.339861
 C         1.028325         1.548523        -2.645946
 O         1.002000         2.932195        -3.013251
 C         1.716560         0.722283         0.580574
 O         1.542917         0.386125         1.754555
 H         3.756418         3.652879        -2.808502
 H         4.177673         2.021126        -2.743691
 H         3.124204         2.627814        -4.066863
 H         2.885792         3.025848        -0.136237
 H         1.450348         3.714682        -0.831647
 H         0.312387         2.438940         0.477182
 H        -0.315112         0.344616        -1.324946
 H        -0.863868         1.934147        -1.479132
 H         1.216619         0.867259        -3.392664
 H         2.661472         0.506397         0.056965
