19
Iteration:   956charge 0 multiplicity 1
 C         3.391728         2.085800        -2.936812
 C         2.086644         2.429381        -2.256860
 C         2.103783         2.804376        -0.801698
 C         1.005206         1.984942        -0.060856
 C         0.094412         1.608550        -1.232135
 C         0.807794         1.689778        -2.501471
 O         1.045762         3.141313        -3.033306
 C         1.733103         0.740449         0.469921
 O         1.512528         0.192002         1.538901
 H         4.068490         2.893483        -2.709301
 H         3.948529         1.198300        -2.382418
 H         3.245827         1.814097        -3.927454
 H         3.081771         2.573209        -0.357170
 H         1.958576         3.827536        -0.523509
 H         0.485489         2.612502         0.644024
 H        -0.392640         0.579903        -1.127034
 H        -0.794394         2.273502        -1.366540
 H         0.802242         0.998840        -3.322126
 H         2.571272         0.386705        -0.162796
