19
Iteration:    78
 C         3.218975         2.607809        -3.377717
 C         2.162772         2.424228        -2.317440
 C         2.679931         2.379120        -0.945805
 C         1.335406         1.949836        -0.136982
 C         0.481430         1.182709        -1.224330
 C         0.835318         1.776080        -2.544063
 O         0.976622         3.149771        -2.575184
 C         1.558876         0.960578         0.981743
 O         0.640848         0.244233         1.332097
 H         3.846952         3.451464        -3.257189
 H         3.794484         1.684643        -3.396339
 H         2.717505         2.530652        -4.404782
 H         3.416115         1.644441        -0.880427
 H         3.214142         3.268828        -0.653918
 H         0.841199         2.814441         0.305843
 H         0.933851         0.281349        -1.316915
 H        -0.521316         1.013255        -0.939832
 H         0.575545         1.245236        -3.397837
 H         2.578328         1.010124         1.633490
