19
Iteration:  4453
 C         3.119046         3.202551        -3.094056
 C         1.998620         2.759675        -2.251538
 C         1.899339         2.973034        -0.739786
 C         1.157217         1.695331        -0.305446
 C         1.164826         0.711588        -1.407906
 C         1.447800         1.465252        -2.667553
 O         0.673215         2.625056        -2.868479
 C         1.415229         1.157381         1.032709
 O         1.022437         0.062493         1.464739
 H         3.037315         4.407360        -3.472260
 H         4.131310         3.019213        -2.397704
 H         3.221863         2.663198        -4.023397
 H         2.869211         2.988309        -0.246071
 H         1.468729         3.960521        -0.589093
 H         0.127431         2.103097        -0.281284
 H         1.980022         0.102879        -1.228242
 H         0.213144         0.186874        -1.481931
 H         1.953682         0.754579        -3.417169
 H         1.994724         1.816252         1.818107
