19
Iteration:  1275charge 0 multiplicity 1
 C         3.221225         2.950478        -3.336912
 C         2.174870         2.444185        -2.313870
 C         2.526216         1.784934        -0.942138
 C         1.233787         1.331645        -0.460878
 C         0.389417         0.871352        -1.714020
 C         0.889963         1.907221        -2.760246
 O         0.915843         3.237499        -2.209120
 C         1.301536         0.644440         0.919934
 O         1.213868         1.300142         1.897648
 H         3.713657         3.903335        -3.153521
 H         3.947856         2.108831        -3.204477
 H         2.571103         2.862136        -4.267505
 H         3.243263         0.917246        -1.103923
 H         3.051801         2.469721        -0.282928
 H         0.646142         2.247046        -0.234196
 H         0.574077        -0.152905        -1.964235
 H        -0.664361         1.130695        -1.469960
 H         0.910379         1.785853        -3.825447
 H         1.655286        -0.440593         0.845286
