19
Iteration:  1030charge 0 multiplicity 1
 C         3.412747         2.313315        -3.131120
 C         2.124163         2.494796        -2.340905
 C         2.272273         2.811498        -0.718969
 C         1.176147         2.029251        -0.032774
 C         0.101736         1.631084        -1.177397
 C         0.903040         1.640200        -2.469442
 O         0.945424         2.948592        -3.043450
 C         1.632620         0.691472         0.542377
 O         1.277072         0.159203         1.587655
 H         3.838240         3.312974        -3.197248
 H         4.119555         1.623213        -2.568192
 H         3.203014         1.904465        -4.121493
 H         3.230978         2.288592        -0.711830
 H         2.423262         3.882693        -0.418875
 H         0.504819         2.471416         0.698704
 H        -0.277582         0.657590        -0.955775
 H        -0.777311         2.224099        -1.155562
 H         0.791558         0.843846        -3.261957
 H         2.481717         0.331367        -0.055838
