19
Iteration:  3669
 C         3.467158         2.922726        -2.636949
 C         2.058618         2.590108        -2.215697
 C         1.653175         2.755980        -0.709665
 C         0.693344         1.626359        -0.327443
 C         0.505712         0.730765        -1.594286
 C         1.210510         1.482092        -2.761451
 O         0.850669         2.813387        -3.008969
 C         1.088199         0.829366         0.963357
 O         2.218624         0.833902         1.420476
 H         3.535696         4.074107        -2.610392
 H         4.191311         2.520826        -1.841127
 H         3.762666         2.502860        -3.549658
 H         2.624848         2.861027        -0.042795
 H         1.214713         3.767639        -0.582112
 H        -0.356641         1.989431        -0.190425
 H         1.089647        -0.278892        -1.520361
 H        -0.521536         0.365291        -1.732145
 H         1.567434         1.025087        -3.612919
 H         0.261348         0.183361         1.490949
