19
Iteration:  4777charge 0 multiplicity 1
 C         3.415960         2.872254        -2.402253
 C         1.951352         2.610845        -2.057267
 C         1.334526         3.056405        -0.783020
 C         0.632600         1.822498        -0.260908
 C         0.520257         0.881649        -1.396526
 C         1.354073         1.363803        -2.535272
 O         0.904139         2.520595        -3.125409
 C         1.585760         1.349840         0.819327
 O         2.014530         0.219370         0.956563
 H         3.725045         3.908858        -2.691392
 H         4.038097         2.495006        -1.533634
 H         3.781937         2.205129        -3.364780
 H         2.319225         3.304553        -0.171057
 H         0.690247         3.850267        -1.054898
 H        -0.350721         2.221533         0.153474
 H         0.866950        -0.087899        -1.160428
 H        -0.516647         0.766472        -1.635792
 H         1.922143         0.563898        -3.100950
 H         1.880254         2.032022         1.641969
