19
Iteration:  3477
 C         3.318529         2.986724        -2.782695
 C         2.077950         2.545676        -2.199990
 C         1.921115         2.626724        -0.714475
 C         0.785631         1.536981        -0.353301
 C         0.379123         0.888766        -1.601878
 C         1.156528         1.415317        -2.743174
 O         0.907904         2.822053        -2.966460
 C         1.600892         0.768723         0.644774
 O         1.669385         0.973642         1.858617
 H         3.477899         4.057010        -2.518347
 H         4.142326         2.371906        -2.457337
 H         3.178127         2.866290        -3.940271
 H         2.820392         2.351546        -0.213014
 H         1.528646         3.535883        -0.309312
 H        -0.128915         2.040418         0.156351
 H         0.632533        -0.202275        -1.647732
 H        -0.659754         0.803218        -1.916309
 H         1.298441         0.920424        -3.672466
 H         2.180142        -0.081711         0.281854
