19
Iteration:  3807
 C         3.231172         3.304886        -3.009028
 C         2.056796         2.631470        -2.268713
 C         2.031889         2.618975        -0.684437
 C         0.829309         1.685755        -0.370275
 C         0.857722         0.587792        -1.511898
 C         1.355840         1.446832        -2.677009
 O         0.753545         2.746574        -2.897047
 C         0.888575         1.134619         1.086344
 O         1.794755         0.439195         1.504732
 H         3.103823         4.365817        -2.999908
 H         4.218722         3.175874        -2.500206
 H         3.470798         2.915736        -3.937057
 H         3.020095         1.980696        -0.405936
 H         1.937484         3.705089        -0.330784
 H        -0.116027         2.233710        -0.649698
 H         1.517542        -0.189403        -1.216163
 H        -0.087702         0.107502        -1.538180
 H         1.726511         0.932461        -3.533159
 H         0.001322         1.473628         1.627868
