19
Iteration:  4748
 C         3.428270         2.961721        -2.585863
 C         2.000934         2.628867        -2.159578
 C         1.343902         3.100353        -0.864254
 C         0.724190         1.812569        -0.260293
 C         0.496200         0.770416        -1.346779
 C         1.329138         1.338799        -2.449386
 O         0.956807         2.633425        -3.119241
 C         1.571295         1.278765         0.915639
 O         1.913569         0.127380         1.075449
 H         3.517162         4.030896        -2.711845
 H         4.146528         2.654381        -1.773743
 H         3.898697         2.460935        -3.321360
 H         2.031177         3.530224        -0.252755
 H         0.587852         3.818084        -1.246963
 H        -0.147411         2.270365         0.106858
 H         0.911741        -0.247012        -1.130945
 H        -0.594139         0.576312        -1.620141
 H         1.877039         0.708023        -3.192569
 H         1.709979         1.910931         1.844803
