19
Iteration:  3636charge 0 multiplicity 1
 C         3.357407         2.996135        -2.676013
 C         2.007761         2.551104        -2.120978
 C         1.767033         2.737689        -0.700893
 C         0.653426         1.631423        -0.335837
 C         0.303552         0.852788        -1.613037
 C         1.322106         1.413648        -2.726219
 O         0.961353         2.731996        -3.025082
 C         1.218602         0.670971         0.839552
 O         2.160014         0.965980         1.522627
 H         3.366660         4.131287        -2.556803
 H         4.269824         2.591335        -2.124654
 H         3.503967         2.919430        -3.688961
 H         2.690891         2.351682        -0.095726
 H         1.378717         3.740874        -0.482611
 H        -0.272532         2.082647         0.050848
 H         0.530161        -0.284544        -1.465304
 H        -0.772216         0.961702        -1.833407
 H         1.740661         0.938237        -3.549508
 H         0.664770        -0.229852         0.800612
