19
Iteration:    22charge 0 multiplicity 1
 C         3.183421         2.736930        -3.431200
 C         2.216702         2.450841        -2.320473
 C         2.549735         2.299398        -0.842264
 C         1.286530         1.692429        -0.242663
 C         0.453419         1.090661        -1.442556
 C         1.030930         1.726971        -2.702480
 O         0.983819         3.257390        -2.571754
 C         1.498491         0.658361         0.890516
 O         0.757543         0.610149         1.816719
 H         3.840939         3.606404        -3.159998
 H         3.878617         1.913062        -3.614582
 H         2.635438         3.045697        -4.307683
 H         3.403550         1.702014        -0.744096
 H         2.715839         3.286464        -0.429435
 H         0.667860         2.464666         0.207025
 H         0.398161         0.055212        -1.539700
 H        -0.563380         1.458657        -1.287187
 H         0.770117         1.325759        -3.717086
 H         2.320346         0.014696         0.811904
