19
Iteration:  4403
 C         3.123320         3.400279        -2.960645
 C         2.078892         2.683219        -2.237316
 C         1.924321         2.905468        -0.757575
 C         1.006588         1.779017        -0.237657
 C         0.836837         0.695890        -1.406587
 C         1.447505         1.338932        -2.650447
 O         0.831765         2.583231        -3.017657
 C         1.559112         1.087114         0.966506
 O         1.117627         0.123438         1.504407
 H         2.627759         4.284094        -3.073602
 H         4.081388         3.464333        -2.569173
 H         3.275060         3.123187        -4.036386
 H         2.942745         3.007806        -0.248806
 H         1.367357         3.922895        -0.825058
 H         0.046306         2.258728        -0.016001
 H         1.519487        -0.197092        -1.120991
 H        -0.224271         0.484086        -1.562277
 H         1.635342         0.582093        -3.436590
 H         2.385668         1.661074         1.522460
