19
Iteration:   928charge 0 multiplicity 1
 C         3.423831         2.134133        -2.883731
 C         2.117233         2.483469        -2.219914
 C         2.169629         2.868963        -0.817876
 C         1.053224         1.919168        -0.037758
 C        -0.018696         1.690094        -1.310222
 C         0.817096         1.726772        -2.513183
 O         0.980541         3.031436        -3.091194
 C         1.618134         0.600410         0.472261
 O         1.598003         0.218440         1.610084
 H         4.160286         2.960167        -2.704032
 H         3.886311         1.317789        -2.466666
 H         3.243542         1.939588        -4.053315
 H         3.218396         2.610475        -0.440499
 H         2.168844         3.894475        -0.392231
 H         0.544858         2.585345         0.741091
 H        -0.570604         0.770345        -1.324990
 H        -0.709512         2.534031        -1.423893
 H         0.862766         0.930711        -3.267646
 H         2.351896        -0.010514        -0.226233
