19
Iteration:   329charge 0 multiplicity 1
 C         3.285494         2.023506        -3.190243
 C         2.135140         2.317624        -2.333399
 C         2.350723         2.239742        -0.768792
 C         1.019339         1.892907        -0.089043
 C        -0.022762         1.821464        -1.304610
 C         0.727713         1.935743        -2.541877
 O         1.180182         3.371010        -2.693390
 C         1.404639         0.544316         0.458000
 O         1.670882         0.435712         1.649837
 H         3.780935         2.928457        -3.187100
 H         3.947491         1.237677        -2.889654
 H         2.954832         1.774227        -4.226272
 H         3.150960         1.449230        -0.642581
 H         2.712152         3.237292        -0.398173
 H         0.735163         2.621471         0.694491
 H        -0.779158         0.935757        -1.423495
 H        -0.580198         2.763799        -1.126941
 H         0.437967         1.496290        -3.413176
 H         1.809262        -0.032678        -0.415063
