19
Iteration:  2941
 C         3.504543         2.683360        -2.692932
 C         2.018432         2.486594        -2.215072
 C         1.780529         2.872426        -0.758934
 C         0.844451         1.762924        -0.205670
 C         0.193156         1.073673        -1.466735
 C         1.102588         1.473459        -2.656427
 O         0.888199         2.853198        -3.061031
 C         1.653452         0.793644         0.503344
 O         1.783625         0.602978         1.682941
 H         3.719579         3.753745        -2.824971
 H         4.166110         2.302872        -1.905655
 H         3.796888         2.016989        -3.504532
 H         2.676073         3.094917        -0.254492
 H         1.255788         3.905798        -0.726585
 H         0.216987         2.214524         0.553236
 H         0.197395        -0.016415        -1.365424
 H        -0.853438         1.503961        -1.430347
 H         1.304363         0.723049        -3.322545
 H         2.188971         0.058202        -0.243600
