19
Iteration:   281charge 0 multiplicity 1
 C         3.320715         2.038203        -3.228878
 C         2.160752         2.273825        -2.325195
 C         2.369992         2.373449        -0.809877
 C         0.965229         1.835976        -0.167651
 C         0.029533         1.707371        -1.299747
 C         0.755392         2.061759        -2.592477
 O         1.184909         3.402199        -2.703751
 C         1.118975         0.565766         0.690639
 O         1.885262         0.355143         1.607237
 H         4.088146         2.889012        -3.133017
 H         3.819629         1.071445        -2.970749
 H         2.986508         1.908118        -4.249398
 H         3.340985         1.738825        -0.594654
 H         2.499008         3.459756        -0.607237
 H         0.677148         2.518404         0.652922
 H        -0.417195         0.673644        -1.335374
 H        -0.761647         2.468105        -1.218331
 H         0.383617         1.604800        -3.581633
 H         0.216569        -0.102527         0.411890
