19
Iteration:  4236charge 0 multiplicity 1
 C         3.111381         3.506931        -3.098172
 C         2.165670         2.549825        -2.287870
 C         2.135501         2.663906        -0.789248
 C         0.905078         1.742698        -0.333141
 C         0.866989         0.756034        -1.416877
 C         1.487182         1.346192        -2.651643
 O         0.767544         2.591750        -2.888198
 C         1.005619         1.239490         1.127638
 O         1.474990         0.180028         1.496480
 H         2.639230         4.472538        -2.932321
 H         4.174268         3.468796        -2.718130
 H         3.053794         3.276362        -4.088905
 H         3.099821         2.111403        -0.387030
 H         2.045743         3.721763        -0.377127
 H         0.175248         2.501974        -0.220166
 H         1.485778        -0.197715        -1.025351
 H        -0.118411         0.495319        -1.815655
 H         1.550933         0.823719        -3.601995
 H         0.462066         1.894538         1.844336
