19
Iteration:  1118
 C         3.296982         2.329663        -3.243665
 C         2.131705         2.503046        -2.319291
 C         2.286684         2.605707        -0.766754
 C         1.125680         2.012300        -0.090620
 C         0.353786         1.296126        -1.314964
 C         0.911411         1.757595        -2.576223
 O         0.932269         3.173619        -2.859093
 C         1.568894         0.740465         0.654159
 O         1.226651         0.316073         1.709558
 H         4.061523         3.120634        -3.365159
 H         3.862570         1.338646        -2.892539
 H         2.944275         2.065856        -4.206453
 H         3.101343         1.904627        -0.389842
 H         2.667652         3.608218        -0.362625
 H         0.357209         2.627008         0.377434
 H         0.514820         0.227875        -1.197220
 H        -0.703448         1.467204        -1.234099
 H         0.650093         1.247667        -3.537211
 H         2.466809         0.240327         0.120167
