19
Iteration:  3640charge 0 multiplicity 1
 C         3.358559         3.004209        -2.629986
 C         2.032163         2.550218        -2.139766
 C         1.740085         2.726701        -0.689078
 C         0.683070         1.644279        -0.329419
 C         0.335694         0.818706        -1.603505
 C         1.301158         1.418524        -2.710920
 O         0.945518         2.768378        -3.051023
 C         1.209008         0.689336         0.830219
 O         2.177029         0.957724         1.522532
 H         3.352131         4.055826        -2.605686
 H         4.165905         2.533024        -2.196398
 H         3.549803         2.730304        -3.731398
 H         2.658552         2.386337        -0.175998
 H         1.384631         3.724654        -0.535644
 H        -0.266008         1.979503         0.016024
 H         0.431805        -0.232943        -1.516005
 H        -0.764033         0.804304        -1.837682
 H         1.783980         0.973382        -3.621015
 H         0.429708        -0.176775         0.945060
