19
Iteration:  4645
 C         3.208215         3.245403        -2.939338
 C         2.046778         2.633000        -2.272867
 C         1.767624         2.965480        -0.688791
 C         0.859661         1.795325        -0.286815
 C         0.854964         0.708367        -1.301627
 C         1.428881         1.335021        -2.559834
 O         0.861160         2.638218        -3.028799
 C         1.301628         1.232867         1.012241
 O         1.512780         0.040964         1.262748
 H         3.216599         4.349263        -3.137625
 H         4.092183         3.248892        -2.324072
 H         3.309837         2.927858        -4.099481
 H         2.587839         3.151032        -0.035369
 H         1.368004         3.926746        -0.676669
 H        -0.152636         2.200840        -0.146223
 H         1.508225        -0.067644        -0.996000
 H        -0.124334         0.305719        -1.434393
 H         1.791373         0.596797        -3.263648
 H         1.383940         2.083631         1.820297
