19
Iteration:  2261
 C         3.421192         2.546532        -3.002742
 C         2.070138         2.433216        -2.196952
 C         1.926454         2.826554        -0.717509
 C         0.898920         1.818660        -0.138846
 C         0.124786         1.211568        -1.468518
 C         0.991790         1.577860        -2.647104
 O         0.991939         3.008816        -3.038066
 C         1.771621         0.792253         0.633703
 O         1.564172         0.367755         1.756772
 H         3.815778         3.574666        -2.915954
 H         4.356924         2.096310        -2.637619
 H         3.321174         2.276656        -4.135639
 H         3.005172         2.796551        -0.457956
 H         1.633563         3.778712        -0.559280
 H         0.206332         2.160788         0.556010
 H        -0.233947         0.191359        -1.301227
 H        -0.811575         1.755062        -1.314258
 H         1.166346         0.893261        -3.428936
 H         2.761734         0.576200         0.176138
