19
Iteration:   896charge 0 multiplicity 1
 C         3.463510         2.222255        -3.019785
 C         2.146006         2.310950        -2.194013
 C         2.112830         2.863862        -0.774084
 C         1.045622         1.939758        -0.039825
 C        -0.059664         1.615257        -1.220626
 C         0.812456         1.719864        -2.515813
 O         1.172384         3.010406        -2.918319
 C         1.497565         0.555661         0.367819
 O         1.636491         0.353535         1.564280
 H         3.967189         3.183811        -3.155094
 H         4.075366         1.480636        -2.712578
 H         3.216443         2.048650        -4.152469
 H         3.133201         2.902758        -0.323122
 H         1.531823         3.816428        -0.725357
 H         0.603221         2.572026         0.791632
 H        -0.564977         0.688517        -1.135351
 H        -0.793155         2.408474        -1.301597
 H         0.516296         1.036478        -3.320974
 H         1.747137        -0.087530        -0.516888
