19
Iteration:  3431charge 0 multiplicity 1
 C         3.291581         3.141905        -3.069044
 C         2.131810         2.609968        -2.340815
 C         2.049418         2.694272        -0.820848
 C         1.000141         1.692609        -0.237473
 C         0.521684         0.847115        -1.528723
 C         1.190170         1.403049        -2.781402
 O         0.818698         2.793508        -2.934568
 C         1.433716         0.637993         0.812888
 O         1.406525         0.769594         2.033812
 H         3.564737         4.173445        -2.663466
 H         4.050022         2.406276        -2.761554
 H         3.200925         3.125315        -4.277171
 H         3.044220         2.423220        -0.318779
 H         1.817634         3.702096        -0.638660
 H         0.175118         2.343371         0.170367
 H         0.722289        -0.246829        -1.472911
 H        -0.614839         0.758714        -1.651329
 H         1.521780         0.832753        -3.662994
 H         2.063190        -0.237954         0.310883
