19
Iteration:  1080
 C         3.435964         2.435426        -3.256328
 C         2.213854         2.396799        -2.383911
 C         2.265584         2.785569        -0.789622
 C         1.153001         1.953199        -0.128150
 C         0.159625         1.491448        -1.189526
 C         0.842990         1.646423        -2.536711
 O         1.003874         3.014797        -2.816796
 C         1.702232         0.610178         0.632806
 O         1.151895         0.297550         1.659962
 H         3.821030         3.462572        -3.268876
 H         4.057796         1.699772        -2.926182
 H         3.024670         2.199201        -4.303181
 H         3.202139         2.490857        -0.415480
 H         2.064863         3.802701        -0.925532
 H         0.685516         2.434802         0.743496
 H        -0.444845         0.556089        -1.141562
 H        -0.747193         2.188830        -1.187972
 H         0.586720         0.922068        -3.295167
 H         2.553081         0.022784         0.078315
