19
Iteration:  4870charge 0 multiplicity 1
 C         3.389259         2.946374        -2.418102
 C         2.029080         2.534389        -2.060719
 C         1.465019         3.100456        -0.669560
 C         0.497928         1.926286        -0.100091
 C         0.295184         0.956037        -1.342452
 C         1.391720         1.251491        -2.269733
 O         1.084816         2.343813        -3.238600
 C         1.354930         1.209392         0.820350
 O         2.218225         0.406900         0.542365
 H         3.479116         4.026730        -2.686692
 H         4.214092         2.633246        -1.685131
 H         3.636068         2.448708        -3.360707
 H         2.121520         3.328929         0.142315
 H         0.599802         3.873458        -0.804901
 H        -0.429277         2.222140         0.349816
 H         0.366634        -0.103833        -0.906713
 H        -0.714310         1.062279        -1.788271
 H         2.118348         0.457017        -2.595057
 H         1.288999         1.532226         1.930250
