19
Iteration:  1375
 C         3.254199         2.855752        -3.347055
 C         2.209790         2.495864        -2.304812
 C         2.455613         2.226112        -0.824330
 C         1.074594         1.653408        -0.238956
 C         0.298062         1.069289        -1.563521
 C         1.031935         1.703257        -2.745085
 O         0.922182         3.119105        -2.656957
 C         1.102794         0.604902         0.848557
 O         1.507117         0.841234         1.995705
 H         3.888149         3.688317        -2.836687
 H         3.773036         1.909521        -3.539276
 H         2.743893         3.300897        -4.262589
 H         3.278138         1.449785        -0.830185
 H         2.847188         3.074894        -0.327754
 H         0.467660         2.535666        -0.007944
 H         0.398074         0.024316        -1.809107
 H        -0.797981         1.237773        -1.415488
 H         0.955899         1.137077        -3.677164
 H         1.033982        -0.398498         0.438666
