19
Iteration:  4319charge 0 multiplicity 1
 C         3.223250         3.212664        -2.973754
 C         2.017969         2.678439        -2.296611
 C         1.811864         2.915822        -0.817319
 C         1.061803         1.720502        -0.282758
 C         1.024212         0.651899        -1.353869
 C         1.403526         1.411284        -2.612902
 O         0.710197         2.725066        -2.974713
 C         1.371936         1.247074         1.079448
 O         1.240869         0.051217         1.420422
 H         3.601279         4.293594        -2.760693
 H         4.195561         2.771927        -2.616579
 H         3.204299         3.127437        -4.158582
 H         2.653113         3.056599        -0.216778
 H         1.302165         3.868464        -0.734365
 H         0.022554         2.143407        -0.196273
 H         1.737768        -0.134831        -1.271583
 H         0.087287         0.053550        -1.309390
 H         1.781593         0.867873        -3.510687
 H         1.783626         2.060602         1.750665
