19
Iteration:   154charge 0 multiplicity 1
 C         3.262329         2.466410        -3.384009
 C         2.218719         2.386221        -2.351224
 C         2.484404         2.067768        -0.887446
 C         1.110662         1.862295        -0.109080
 C         0.189642         1.285247        -1.299855
 C         0.860299         1.882047        -2.615214
 O         1.174418         3.338366        -2.654973
 C         1.153983         1.264341         1.254728
 O         1.400707         0.057533         1.267378
 H         3.753286         3.416015        -3.305026
 H         4.017177         1.683123        -3.308407
 H         2.733887         2.499835        -4.442352
 H         3.058751         1.214535        -0.819472
 H         2.950991         2.860736        -0.309065
 H         0.770492         2.888967         0.133621
 H         0.278484         0.244426        -1.361104
 H        -0.866229         1.489876        -1.223665
 H         0.451317         1.557723        -3.499673
 H         0.876195         1.845946         2.065611
