19
Iteration:  4262charge 0 multiplicity 1
 C         3.151585         3.346209        -3.115068
 C         2.045884         2.653097        -2.245581
 C         2.059578         2.848533        -0.709146
 C         0.939615         1.730851        -0.301036
 C         0.996402         0.622230        -1.334980
 C         1.431664         1.335519        -2.551743
 O         0.810660         2.674499        -2.903138
 C         1.030351         1.284438         1.094440
 O         1.407527         0.124717         1.303321
 H         2.901109         4.415287        -3.225232
 H         4.129601         3.024450        -2.773089
 H         2.946562         2.818072        -4.197844
 H         2.934491         2.432687        -0.362332
 H         1.970194         3.912062        -0.315252
 H         0.011341         2.346370        -0.287609
 H         1.884702         0.022687        -1.233729
 H         0.065803         0.061247        -1.470299
 H         1.545864         0.896264        -3.538034
 H         0.831466         2.015759         1.973945
