19
Iteration:    53charge 0 multiplicity 1
 C         3.306115         2.682636        -3.556683
 C         2.218936         2.489789        -2.426951
 C         2.611845         2.399157        -0.921300
 C         1.323462         1.858050        -0.141307
 C         0.513008         1.110314        -1.201622
 C         0.958772         1.716351        -2.539064
 O         0.923169         3.234251        -2.592316
 C         1.504693         0.812911         0.934880
 O         0.581773         0.305995         1.629228
 H         4.002728         3.556706        -3.194265
 H         3.891721         1.764015        -3.741857
 H         2.915299         2.848561        -4.516246
 H         3.446911         1.751040        -0.812982
 H         3.011355         3.353275        -0.561969
 H         0.727725         2.720644         0.183183
 H         0.599307         0.047166        -1.211477
 H        -0.540163         1.402205        -1.006294
 H         0.527569         1.305846        -3.577312
 H         2.644872         0.389733         1.112087
