19
Iteration:  2109charge 0 multiplicity 1
 C         3.373308         2.522934        -2.950112
 C         2.049279         2.552035        -2.287313
 C         2.024674         2.850261        -0.763273
 C         0.941724         1.920158        -0.143695
 C         0.351949         1.132903        -1.388036
 C         1.042073         1.592970        -2.665907
 O         0.866084         2.999992        -2.996972
 C         1.643009         0.726251         0.605541
 O         1.510981         0.399969         1.762671
 H         3.843816         3.513327        -2.823941
 H         3.977544         1.787706        -2.505321
 H         3.386077         2.234667        -4.024947
 H         3.013653         2.355788        -0.306723
 H         1.984292         3.857386        -0.378832
 H         0.233541         2.416876         0.456570
 H         0.486640         0.031323        -1.424269
 H        -0.769660         1.403657        -1.443558
 H         1.005050         0.992194        -3.578565
 H         2.267805         0.052557        -0.081739
