19
Iteration:  3620
 C         3.373001         3.111264        -2.716837
 C         2.142610         2.495257        -2.159609
 C         1.751819         2.688420        -0.603662
 C         0.675012         1.652126        -0.284447
 C         0.317103         0.901041        -1.647634
 C         1.280701         1.334729        -2.614132
 O         0.919145         2.717143        -3.016012
 C         1.271875         0.673452         0.700019
 O         2.078675         0.992263         1.549471
 H         3.445977         4.178462        -2.483734
 H         4.247008         2.465688        -2.393088
 H         3.368814         2.882781        -3.891558
 H         2.626338         2.539915        -0.064996
 H         1.399673         3.751247        -0.454675
 H        -0.262342         2.163048         0.198041
 H         0.189237        -0.171077        -1.541220
 H        -0.669971         1.080167        -2.114412
 H         1.580999         0.575407        -3.449168
 H         0.964746        -0.474427         0.594352
