19
Iteration:  3279charge 0 multiplicity 1
 C         2.928894         3.257862        -3.504780
 C         2.158839         2.556691        -2.402251
 C         2.611037         2.408047        -0.968223
 C         1.431910         1.687574        -0.295968
 C         0.874251         0.713987        -1.372980
 C         1.249943         1.459289        -2.609951
 O         0.755073         2.869839        -2.392919
 C         1.538765         0.874901         0.993109
 O         0.514388         0.721199         1.660831
 H         3.227554         4.266329        -3.207962
 H         3.621461         2.561069        -3.925815
 H         2.005364         3.358857        -4.196798
 H         3.555526         1.721560        -0.985253
 H         2.771068         3.395243        -0.404139
 H         0.651794         2.565682         0.024884
 H         1.648689        -0.048027        -1.247314
 H        -0.219804         0.454067        -1.144735
 H         1.057414         1.047308        -3.661877
 H         2.394369         0.331834         1.437171
