19
Iteration:  4984
 C         3.446224         2.937225        -2.260114
 C         2.054757         2.533193        -2.103579
 C         1.241739         3.154189        -0.884463
 C         0.638599         1.921051        -0.188568
 C         0.263075         0.923750        -1.346650
 C         1.348285         1.305921        -2.443335
 O         0.983022         2.425666        -3.216313
 C         1.675137         1.286705         0.874514
 O         2.148182         0.177116         0.790191
 H         3.598915         3.999437        -2.021509
 H         3.856053         2.255243        -1.572249
 H         3.758023         2.655205        -3.245359
 H         1.779054         3.865786        -0.258045
 H         0.261845         3.767612        -1.194282
 H        -0.234451         2.254819         0.398149
 H         0.448836        -0.179574        -1.069969
 H        -0.793151         0.973250        -1.773500
 H         1.991390         0.597182        -2.931235
 H         1.826291         2.000333         1.691789
