19
Iteration:   439
 C         3.224892         2.182744        -3.429529
 C         2.136994         2.302599        -2.409218
 C         2.617538         2.368076        -0.937644
 C         1.310022         1.868397        -0.174677
 C         0.107589         1.610474        -1.130273
 C         0.729574         1.950936        -2.521645
 O         1.074552         3.306929        -2.567693
 C         1.670649         0.668493         0.658464
 O         0.996605         0.377489         1.618998
 H         3.932880         2.968845        -3.282114
 H         3.737557         1.203631        -3.219870
 H         2.855011         2.199778        -4.428345
 H         3.370495         1.483636        -0.756471
 H         3.049258         3.390190        -0.574642
 H         0.936268         2.615624         0.575010
 H        -0.328430         0.535175        -1.131146
 H        -0.710575         2.235179        -0.723158
 H         0.372741         1.462745        -3.416430
 H         2.645585         0.155888         0.503512
