19
Iteration:  4591
 C         3.167923         3.320234        -2.986045
 C         2.050424         2.717801        -2.260222
 C         2.004244         2.797635        -0.730741
 C         0.992550         1.592298        -0.402798
 C         1.077244         0.523518        -1.474887
 C         1.327548         1.434781        -2.710523
 O         0.737476         2.744073        -2.866446
 C         1.098250         1.247507         1.040124
 O         1.393779         0.195534         1.578502
 H         3.007342         4.423805        -2.999427
 H         4.170257         3.005845        -2.682623
 H         3.058157         3.038548        -4.194699
 H         3.024096         2.540981        -0.425470
 H         1.709236         3.824950        -0.312890
 H         0.093956         2.207667        -0.534419
 H         2.038201        -0.074643        -1.287687
 H         0.181777        -0.124326        -1.614453
 H         1.725661         0.967449        -3.604794
 H         0.840416         2.135653         1.589870
