19
Iteration:  4641
 C         3.250385         3.243760        -2.964352
 C         2.028795         2.657631        -2.276720
 C         1.765305         2.975407        -0.695061
 C         0.872488         1.778328        -0.285348
 C         0.858467         0.704776        -1.319988
 C         1.444384         1.340201        -2.563379
 O         0.818229         2.638394        -3.023394
 C         1.287703         1.223354         1.032710
 O         1.508827         0.036120         1.297335
 H         3.180902         4.346073        -3.181967
 H         4.156744         3.177336        -2.319271
 H         3.336241         2.904796        -3.932271
 H         2.694936         3.026808         0.028704
 H         1.372308         4.040613        -0.737374
 H        -0.133010         2.295568        -0.263789
 H         1.643056        -0.061947        -1.125118
 H        -0.127200         0.229394        -1.384348
 H         1.794499         0.695478        -3.369421
 H         1.332801         2.047851         1.775190
