19
Iteration:  1430charge 0 multiplicity 1
 C         3.440185         2.546144        -3.080932
 C         2.126265         2.458493        -2.299425
 C         2.241107         2.458342        -0.732540
 C         1.003769         1.661661        -0.288217
 C         0.204477         1.131314        -1.525442
 C         0.895990         1.706948        -2.714464
 O         0.878383         3.265111        -2.758677
 C         1.412339         0.609463         0.692976
 O         1.642090         0.753474         1.840874
 H         3.780112         3.685797        -3.291675
 H         4.228750         1.988442        -2.529246
 H         3.255080         1.890340        -3.975389
 H         3.206030         1.986159        -0.409046
 H         2.217914         3.467318        -0.402926
 H         0.359175         2.373697         0.253714
 H         0.243495         0.018559        -1.651837
 H        -0.902027         1.358177        -1.457117
 H         0.665837         1.155877        -3.639331
 H         1.312063        -0.457603         0.200807
