19
Iteration:  1616
 C         3.419998         2.399823        -2.967163
 C         2.079626         2.483466        -2.265070
 C         2.086047         2.830037        -0.761730
 C         0.951863         1.907913        -0.185805
 C         0.123076         1.241585        -1.382681
 C         0.938754         1.648277        -2.593806
 O         0.901953         3.060981        -2.910157
 C         1.696068         0.797111         0.581007
 O         1.540499         0.340556         1.620667
 H         3.933435         3.472063        -2.974584
 H         4.119124         1.929596        -2.223499
 H         3.536708         1.737208        -3.825192
 H         3.115465         2.553006        -0.388203
 H         2.032031         3.899077        -0.691681
 H         0.311919         2.372593         0.580674
 H         0.347840         0.096376        -1.184652
 H        -1.029513         1.417569        -1.390334
 H         1.227987         0.749417        -3.214564
 H         2.351868         0.266062        -0.132339
