19
Iteration:  2878charge 0 multiplicity 1
 C         3.477174         2.655197        -2.768793
 C         2.092255         2.576606        -2.159627
 C         1.734383         2.886957        -0.729555
 C         0.804796         1.622364        -0.216849
 C         0.137371         1.131635        -1.534878
 C         1.100548         1.468476        -2.639838
 O         0.898245         2.823657        -3.050505
 C         1.792608         0.736431         0.533163
 O         1.729628         0.702059         1.740355
 H         4.026579         3.555719        -2.554309
 H         4.084826         1.861797        -2.308011
 H         3.439668         2.563398        -3.907151
 H         2.649060         2.779099        -0.016505
 H         1.314111         3.933485        -0.666780
 H         0.148957         1.889739         0.554897
 H        -0.001808         0.040791        -1.589421
 H        -0.741998         1.680577        -1.757788
 H         1.394265         0.844924        -3.490162
 H         2.552390         0.119514        -0.082725
