19
Iteration:  2444charge 0 multiplicity 1
 C         3.281737         2.788878        -3.252848
 C         2.145263         2.521940        -2.311873
 C         2.326769         2.588791        -0.752851
 C         1.055451         1.824249        -0.300866
 C         0.447806         1.042270        -1.448074
 C         1.071645         1.592950        -2.691829
 O         0.774673         2.979431        -2.751745
 C         1.622281         0.860513         0.765889
 O         1.138464         0.447592         1.853235
 H         3.673554         3.717629        -3.078411
 H         3.931909         1.980782        -3.031353
 H         2.924163         2.705091        -4.272124
 H         3.335497         2.308254        -0.362389
 H         2.237838         3.681171        -0.395283
 H         0.499245         2.540611         0.213005
 H         0.896038         0.035645        -1.262198
 H        -0.578090         0.846799        -1.443095
 H         0.990144         0.956079        -3.544219
 H         2.627350         0.372374         0.496943
