19
Iteration:  2591
 C         3.055258         3.231512        -3.453474
 C         2.102752         2.507327        -2.441581
 C         2.626503         2.268667        -1.024602
 C         1.487268         1.531826        -0.297147
 C         0.784872         0.636134        -1.464431
 C         0.994473         1.565294        -2.619204
 O         0.835667         3.067413        -2.470885
 C         1.463932         0.801658         1.009959
 O         0.638974         0.876747         1.871094
 H         3.063707         4.378768        -3.213887
 H         4.148629         2.989768        -3.214967
 H         2.705266         2.900371        -4.420627
 H         3.539120         1.466733        -1.082796
 H         3.003623         3.139053        -0.392388
 H         0.559047         2.219950        -0.208210
 H         0.983581        -0.419769        -1.730400
 H        -0.367363         0.791240        -1.210132
 H         0.733572         1.276886        -3.658753
 H         2.406954         0.261993         1.262691
