19
Iteration:   933charge 0 multiplicity 1
 C         3.393397         2.142488        -2.882428
 C         2.132777         2.510075        -2.233118
 C         2.207474         2.879706        -0.792625
 C         1.064744         1.939629        -0.064338
 C        -0.040420         1.681943        -1.330518
 C         0.820703         1.725328        -2.563580
 O         0.969059         3.010088        -3.080206
 C         1.631953         0.643958         0.480906
 O         1.593328         0.183537         1.626238
 H         4.127690         2.890766        -2.651131
 H         3.881907         1.174067        -2.359673
 H         3.195786         1.912022        -3.822526
 H         3.111200         2.519698        -0.370629
 H         2.234977         3.953787        -0.514070
 H         0.732325         2.424424         0.827170
 H        -0.642283         0.725702        -1.364573
 H        -0.776202         2.504642        -1.297638
 H         0.862319         0.967852        -3.370932
 H         2.325921         0.159343        -0.168231
