19
Iteration:  4949
 C         3.331841         2.753455        -2.280533
 C         1.911938         2.597338        -2.055829
 C         1.260129         3.065623        -0.838400
 C         0.585616         1.800582        -0.122681
 C         0.225310         0.899909        -1.423777
 C         1.367046         1.322450        -2.406167
 O         1.136980         2.553327        -3.285414
 C         1.634949         1.334763         0.830957
 O         2.268032         0.300418         0.793075
 H         3.625797         3.818335        -2.304662
 H         3.785394         2.471188        -1.335862
 H         3.872080         2.210084        -3.163101
 H         1.881121         3.564122        -0.133172
 H         0.280400         3.781571        -1.022510
 H        -0.330482         2.138924         0.350071
 H         0.221466        -0.210144        -0.973597
 H        -0.800371         1.235917        -1.682674
 H         1.890021         0.601948        -2.981931
 H         1.903494         2.024536         1.657795
