19
Iteration:  3227
 C         3.138555         3.062867        -3.357838
 C         2.038478         2.631718        -2.449608
 C         2.495711         2.479186        -0.958728
 C         1.273172         1.652566        -0.219620
 C         0.884405         0.687711        -1.489999
 C         1.106234         1.593810        -2.703442
 O         0.681959         2.931911        -2.527077
 C         1.606053         0.989634         1.045971
 O         0.711332         0.593034         1.777952
 H         3.360050         4.046512        -3.103388
 H         3.881967         2.318285        -3.184807
 H         2.881452         2.888871        -4.471510
 H         3.434218         1.894978        -0.875895
 H         2.916531         3.476278        -0.466962
 H         0.341244         2.229277        -0.016821
 H         1.513389        -0.185983        -1.605201
 H        -0.164112         0.407490        -1.294566
 H         0.952757         1.212031        -3.757389
 H         2.621646         0.757283         1.404122
