19
Iteration:  4912
 C         3.476650         2.814855        -2.324276
 C         2.043462         2.522553        -1.985721
 C         1.316702         3.089886        -0.804694
 C         0.504439         1.848664        -0.263305
 C         0.223976         0.864228        -1.323243
 C         1.326823         1.275181        -2.383054
 O         1.035930         2.509944        -3.069212
 C         1.490503         1.284121         0.767578
 O         2.294412         0.381952         0.640810
 H         3.422423         3.887389        -2.665996
 H         4.043302         2.835633        -1.297645
 H         4.069004         2.222074        -2.992556
 H         1.979496         3.718780        -0.119385
 H         0.712447         3.800561        -1.372952
 H        -0.261060         2.279667         0.376865
 H         0.329223        -0.146892        -1.042219
 H        -0.737685         0.924266        -1.815706
 H         1.723354         0.429770        -3.054830
 H         1.450489         1.968955         1.621631
