19
Iteration:   951charge 0 multiplicity 1
 C         3.380438         2.098776        -2.899037
 C         2.059619         2.451980        -2.264451
 C         2.143809         2.785844        -0.745489
 C         1.014789         2.006521        -0.089971
 C         0.036583         1.626089        -1.248258
 C         0.829493         1.686330        -2.553141
 O         1.030518         3.121735        -3.050912
 C         1.752937         0.725986         0.509543
 O         1.530575         0.177308         1.547700
 H         4.179222         2.867539        -2.762080
 H         3.732182         1.275470        -2.367948
 H         3.324558         1.786181        -4.020005
 H         3.183825         2.648486        -0.391467
 H         2.019355         3.880040        -0.490963
 H         0.346391         2.652078         0.535726
 H        -0.365398         0.670019        -1.003736
 H        -0.762538         2.347326        -1.381972
 H         0.800030         0.924493        -3.366208
 H         2.532667         0.194668        -0.192705
