19
Iteration:  2669
 C         3.200641         2.983328        -3.377307
 C         2.178873         2.507093        -2.393058
 C         2.283306         2.537051        -0.861001
 C         1.117697         1.621741        -0.169496
 C         0.655569         0.873154        -1.554187
 C         1.075732         1.606768        -2.819115
 O         0.835706         3.000252        -2.730978
 C         1.539062         0.693705         0.965907
 O         1.045887         0.748156         2.058379
 H         3.695141         3.867996        -2.811343
 H         4.012646         2.253305        -3.619073
 H         2.736922         3.442017        -4.258875
 H         3.192975         1.909812        -0.530208
 H         2.117053         3.463181        -0.469357
 H         0.301931         2.137705         0.294517
 H         1.020020        -0.195505        -1.619536
 H        -0.448145         0.877064        -1.577788
 H         1.102716         1.242084        -3.790768
 H         2.116369        -0.226941         0.688906
