19
Iteration:  2732charge 0 multiplicity 1
 C         3.357280         2.846259        -2.950677
 C         2.118253         2.488196        -2.350120
 C         2.154577         2.562197        -0.814613
 C         0.888354         1.747195        -0.273495
 C         0.403162         0.908288        -1.512341
 C         1.033485         1.560723        -2.727105
 O         0.835604         2.934564        -2.835319
 C         1.518821         0.855489         0.695678
 O         1.474268         0.653430         1.889550
 H         3.550584         3.880247        -2.609821
 H         4.197367         2.284294        -2.506837
 H         3.346494         2.683840        -3.981205
 H         3.185380         2.350126        -0.528086
 H         1.907732         3.708749        -0.515094
 H         0.148714         2.514642         0.047955
 H         0.812908        -0.081340        -1.515176
 H        -0.736477         0.945831        -1.497945
 H         1.161064         0.957084        -3.625901
 H         2.350565         0.339657         0.090823
