19
Iteration:  4221
 C         3.058656         3.500842        -2.981076
 C         2.129499         2.623524        -2.293177
 C         2.178812         2.607032        -0.775390
 C         0.967003         1.787360        -0.347946
 C         0.785863         0.664435        -1.533674
 C         1.465887         1.297983        -2.729524
 O         0.789444         2.586387        -2.845966
 C         0.989378         1.256819         1.069393
 O         1.518067         0.243211         1.576862
 H         2.687604         4.537933        -2.895374
 H         4.039681         3.383234        -2.582335
 H         3.137026         3.386399        -4.111031
 H         3.241973         2.202966        -0.387057
 H         2.322266         3.590237        -0.377757
 H        -0.022990         2.376493        -0.468465
 H         1.248016        -0.314526        -1.297111
 H        -0.340579         0.675858        -1.701255
 H         1.856804         0.677203        -3.565229
 H         0.586524         1.934423         1.809997
