19
Iteration:   501
 C         3.021526         2.428036        -3.643333
 C         2.232607         2.485508        -2.389588
 C         2.701820         2.091012        -1.018249
 C         1.476023         1.771103        -0.185424
 C         0.375140         1.325648        -1.150772
 C         0.863295         1.916995        -2.515547
 O         1.052026         3.352891        -2.528070
 C         1.561326         0.770413         0.918157
 O         0.676645         0.482213         1.719772
 H         3.582282         3.323019        -3.993502
 H         3.746743         1.609450        -3.583205
 H         2.255811         2.263712        -4.530226
 H         3.429047         1.311515        -1.013455
 H         3.347649         2.886490        -0.614250
 H         1.101692         2.638537         0.328592
 H         0.182362         0.272737        -1.344943
 H        -0.488786         1.815564        -0.745244
 H         0.565427         1.576420        -3.473375
 H         2.397658         0.103733         0.766802
