19
Iteration:  2246
 C         3.445406         2.579769        -2.974842
 C         2.202358         2.426295        -2.262597
 C         1.959113         2.772030        -0.750285
 C         0.901744         1.762019        -0.174482
 C         0.136149         1.260988        -1.344199
 C         0.965217         1.597149        -2.585239
 O         0.937514         2.967011        -2.981566
 C         1.765516         0.808214         0.593713
 O         1.537975         0.423029         1.669947
 H         3.662344         3.684777        -3.038297
 H         4.239774         1.969747        -2.340002
 H         3.265947         2.111291        -3.917242
 H         2.706426         2.769711         0.020535
 H         1.372598         3.786004        -0.847905
 H         0.272134         2.263389         0.690880
 H         0.146173         0.144112        -1.409478
 H        -0.771458         1.770354        -1.592569
 H         0.941965         0.887657        -3.526917
 H         2.632424         0.500862        -0.053444
