19
Iteration:   832
 C         3.389779         2.182004        -2.970680
 C         2.142499         2.354380        -2.233279
 C         2.161596         2.573540        -0.709245
 C         0.973736         1.927935        -0.166772
 C        -0.053334         1.559538        -1.364158
 C         0.813663         1.829584        -2.563630
 O         1.054088         3.160349        -2.954360
 C         1.488627         0.540484         0.492873
 O         1.749038         0.482740         1.646972
 H         3.913417         3.184397        -3.089994
 H         4.031528         1.554975        -2.173397
 H         3.412800         1.834387        -4.119671
 H         3.157646         2.191134        -0.491411
 H         2.293286         3.679479        -0.350316
 H         0.574958         2.555525         0.685532
 H        -0.408390         0.513144        -1.212060
 H        -0.857354         2.298404        -1.493438
 H         0.664908         1.196945        -3.481777
 H         1.953560        -0.289286        -0.152981
