19
Iteration:  1535
 C         3.425028         2.534578        -2.993234
 C         2.108706         2.541474        -2.286728
 C         2.075361         2.755962        -0.694139
 C         0.930567         1.886502        -0.128500
 C         0.087798         1.320290        -1.454863
 C         1.031233         1.586142        -2.613271
 O         0.933248         2.976031        -2.996051
 C         1.438897         0.578470         0.566589
 O         1.750385         0.468559         1.766600
 H         4.059129         3.240266        -2.532178
 H         3.980918         1.579334        -2.914217
 H         3.329401         2.962323        -4.057625
 H         3.107949         2.512533        -0.405812
 H         1.898455         3.873654        -0.388278
 H         0.395290         2.443049         0.690147
 H        -0.044142         0.274811        -1.238812
 H        -0.859905         1.728626        -1.760405
 H         1.097262         0.774550        -3.325217
 H         1.511679        -0.330845        -0.120656
