19
Iteration:  1480
 C         3.429013         2.479959        -2.986524
 C         2.151667         2.416753        -2.231298
 C         2.024640         2.521606        -0.734608
 C         0.781925         1.653734        -0.264916
 C         0.063271         1.179106        -1.530412
 C         0.866830         1.786343        -2.729656
 O         1.064048         3.149066        -2.805379
 C         1.543689         0.634351         0.610798
 O         1.816544         0.729917         1.793862
 H         3.652327         3.473704        -2.883709
 H         4.297097         2.051064        -2.459832
 H         3.305355         2.143045        -4.046479
 H         2.953421         2.108024        -0.326664
 H         1.886746         3.569081        -0.246965
 H         0.133601         2.343332         0.333781
 H        -0.148269         0.098618        -1.599466
 H        -0.882330         1.702023        -1.504222
 H         0.922507         1.140982        -3.616200
 H         2.047997        -0.132648        -0.035031
