19
Iteration:  2938charge 0 multiplicity 1
 C         3.545375         2.669351        -2.701753
 C         1.992135         2.511277        -2.223170
 C         1.781648         2.894384        -0.747051
 C         0.853993         1.750078        -0.238611
 C         0.208046         1.084940        -1.451099
 C         1.069869         1.474612        -2.653792
 O         0.905057         2.855285        -3.074754
 C         1.628653         0.785122         0.514064
 O         1.798946         0.591987         1.691458
 H         3.692193         3.800862        -2.865382
 H         4.188854         2.261694        -1.849838
 H         3.707165         2.070455        -3.542067
 H         2.591120         3.114689        -0.137851
 H         1.208380         3.793079        -0.788557
 H         0.181819         2.292123         0.571877
 H         0.190878        -0.001217        -1.359879
 H        -0.926245         1.324423        -1.367146
 H         1.325852         0.701310        -3.354905
 H         2.205607         0.059345        -0.141448
