19
Iteration:  3146charge 0 multiplicity 1
 C         3.325606         2.961232        -3.125131
 C         2.086611         2.601057        -2.358790
 C         2.194779         2.827955        -0.766083
 C         1.190102         1.818686        -0.244605
 C         0.498515         0.923370        -1.396491
 C         1.104904         1.462022        -2.605791
 O         0.716435         2.787090        -2.952437
 C         1.661264         0.699299         0.753100
 O         1.106454         0.537034         1.857352
 H         3.550807         4.049238        -3.071086
 H         4.257038         2.511681        -2.836221
 H         3.286036         2.864072        -4.128625
 H         3.291064         2.431359        -0.570178
 H         2.143860         3.847308        -0.345390
 H         0.300201         2.432510         0.158927
 H         0.601877        -0.140762        -1.342512
 H        -0.587190         0.976800        -1.249030
 H         1.358035         0.907818        -3.458978
 H         2.447819         0.015612         0.321229
