19
Iteration:  4573charge 0 multiplicity 1
 C         3.065225         3.480271        -3.087574
 C         2.139235         2.585719        -2.259151
 C         2.087896         2.592649        -0.762034
 C         0.950291         1.629312        -0.389972
 C         1.106539         0.553905        -1.526561
 C         1.424379         1.403361        -2.725927
 O         0.749271         2.728799        -2.774721
 C         1.023418         1.312525         1.095898
 O         1.351574         0.255459         1.559186
 H         3.112846         4.482121        -2.748678
 H         4.103332         3.166652        -2.915550
 H         2.866534         3.533703        -4.063841
 H         3.092213         2.413692        -0.276109
 H         1.834150         3.608557        -0.310978
 H        -0.113424         1.944297        -0.469652
 H         2.014968        -0.098790        -1.382561
 H         0.163946        -0.071778        -1.558838
 H         1.442282         0.908324        -3.735511
 H         0.875957         2.256417         1.797573
