19
Iteration:  2386
 C         3.300089         2.752163        -3.100724
 C         2.107177         2.498310        -2.329733
 C         2.112974         2.762888        -0.791377
 C         1.106957         1.791451        -0.143777
 C         0.313898         1.157519        -1.387335
 C         1.017615         1.548582        -2.686627
 O         0.906963         3.021866        -2.993372
 C         1.703259         0.701818         0.746816
 O         1.284928         0.378404         1.881760
 H         3.566559         3.797240        -3.376158
 H         4.210281         2.357121        -2.646224
 H         3.192259         2.191304        -3.981657
 H         3.136113         2.389515        -0.519023
 H         1.938231         3.889089        -0.656713
 H         0.357476         2.343469         0.538590
 H         0.253259         0.072085        -1.250433
 H        -0.660820         1.757118        -1.622457
 H         1.095455         0.823115        -3.562866
 H         2.467618         0.030782         0.209289
