19
Iteration:  1845charge 0 multiplicity 1
 C         3.189595         3.126640        -3.381332
 C         2.176700         2.523569        -2.403382
 C         2.621319         2.132900        -0.961985
 C         1.234279         1.593901        -0.332864
 C         0.527641         0.860667        -1.499908
 C         0.950974         1.635779        -2.670822
 O         0.842987         3.053387        -2.452508
 C         1.387440         0.707373         0.882130
 O         0.969778         0.895824         1.955460
 H         3.426053         4.229220        -3.116761
 H         4.125288         2.501219        -3.466517
 H         2.708971         3.041961        -4.353182
 H         3.518337         1.428996        -1.073377
 H         2.948706         2.910775        -0.264623
 H         0.655681         2.461461        -0.002874
 H         0.825609        -0.172800        -1.629838
 H        -0.615796         0.993875        -1.512905
 H         0.739176         1.177436        -3.772301
 H         2.166419        -0.105034         0.617717
