19
Iteration:   530charge 0 multiplicity 1
 C         3.110018         2.538627        -3.652431
 C         2.174763         2.358473        -2.458131
 C         2.710682         1.992858        -1.105178
 C         1.479728         1.687842        -0.246247
 C         0.354751         1.208070        -1.270655
 C         0.777529         1.934683        -2.547097
 O         1.060801         3.322310        -2.271635
 C         1.598524         0.809567         0.951455
 O         0.664289         0.695227         1.727289
 H         3.832093         3.367120        -3.518870
 H         3.709896         1.676743        -3.771108
 H         2.583034         2.767501        -4.556222
 H         3.544731         1.264227        -0.900022
 H         3.265572         2.909275        -0.819845
 H         1.066406         2.586396         0.279666
 H         0.441845         0.092829        -1.620924
 H        -0.668902         1.333084        -0.807909
 H         0.180112         1.839764        -3.586141
 H         2.528695         0.149849         1.002285
