19
Iteration:  2793
 C         3.398816         2.736843        -2.970048
 C         2.015071         2.590075        -2.164415
 C         1.863158         2.878488        -0.695820
 C         0.976794         1.636159        -0.219933
 C         0.262403         1.109728        -1.566510
 C         1.181726         1.523447        -2.719597
 O         0.914360         2.887121        -3.008301
 C         1.604652         0.526023         0.661954
 O         1.600225         0.732294         1.869244
 H         3.531868         3.777786        -3.323269
 H         4.304748         2.289272        -2.484947
 H         3.349511         2.218290        -4.051344
 H         2.842318         2.685272        -0.195374
 H         1.564277         3.793019        -0.361061
 H         0.185395         2.127249         0.493948
 H         0.051715        -0.010258        -1.509235
 H        -0.778412         1.367177        -1.785773
 H         1.456753         0.795935        -3.634124
 H         2.208074        -0.345625         0.200047
