19
Iteration:  4979
 C         3.472570         2.901617        -2.273659
 C         2.011265         2.584628        -2.062716
 C         1.209224         3.154031        -0.881708
 C         0.650306         1.912386        -0.169029
 C         0.238652         0.938308        -1.395940
 C         1.336355         1.299268        -2.453283
 O         1.003925         2.410427        -3.249303
 C         1.683303         1.296360         0.848093
 O         2.181516         0.180844         0.815120
 H         3.466784         3.947362        -1.915882
 H         3.913016         2.214852        -1.454853
 H         3.849065         2.513632        -3.287137
 H         1.712665         3.904499        -0.226896
 H         0.339282         3.870310        -1.003815
 H        -0.250865         2.193019         0.399400
 H         0.506471        -0.064923        -0.975627
 H        -0.801579         0.993293        -1.652002
 H         1.929370         0.614964        -3.128967
 H         1.755807         1.892317         1.827043
