19
Iteration:  2809
 C         3.433193         2.782512        -2.944446
 C         2.142585         2.609962        -2.282343
 C         1.877520         2.804427        -0.712434
 C         0.821210         1.682911        -0.211187
 C         0.273018         1.056662        -1.483230
 C         1.131965         1.496592        -2.626709
 O         0.911875         2.875067        -3.032135
 C         1.563629         0.643422         0.619584
 O         1.682540         0.663561         1.827105
 H         3.777687         3.832733        -3.031330
 H         4.091275         2.214835        -2.281247
 H         3.341342         2.358908        -3.887516
 H         2.860221         2.798974        -0.250670
 H         1.287115         3.831721        -0.652505
 H         0.041352         2.060522         0.457200
 H         0.264889        -0.028690        -1.436558
 H        -0.762757         1.474946        -1.583200
 H         1.361013         0.829458        -3.404007
 H         1.895928        -0.295273         0.065478
