19
Iteration:   291charge 0 multiplicity 1
 C         3.344770         2.020011        -3.245043
 C         2.129656         2.300720        -2.315290
 C         2.399616         2.353568        -0.811382
 C         1.027761         1.868312        -0.051585
 C        -0.020114         1.778878        -1.345927
 C         0.668459         2.028410        -2.612576
 O         1.213084         3.385495        -2.723077
 C         1.125962         0.526101         0.659896
 O         1.864826         0.364871         1.614856
 H         4.036950         2.988377        -3.180258
 H         4.007252         1.141373        -2.903069
 H         3.109198         1.958014        -4.294804
 H         3.291637         1.811726        -0.265000
 H         2.655042         3.383857        -0.507942
 H         0.613185         2.671835         0.587224
 H        -0.329118         0.738025        -1.440585
 H        -0.979252         2.308882        -1.260229
 H         0.170520         1.567844        -3.623830
 H         0.664514        -0.463774         0.314363
