19
Iteration:   447
 C         3.213603         2.221490        -3.468021
 C         2.139109         2.315435        -2.375210
 C         2.669825         2.280565        -0.967561
 C         1.333900         1.910527        -0.196406
 C         0.111271         1.572129        -1.113523
 C         0.690794         1.903644        -2.458101
 O         1.098847         3.338101        -2.586579
 C         1.641433         0.719568         0.694206
 O         0.948450         0.353643         1.630898
 H         3.824998         3.097337        -3.227449
 H         3.853837         1.356697        -3.296446
 H         2.930269         2.148415        -4.596715
 H         3.496582         1.607461        -0.706526
 H         2.826495         3.369518        -0.880645
 H         1.133528         2.573454         0.627997
 H        -0.063777         0.565278        -1.123680
 H        -0.781236         2.123444        -0.943025
 H         0.356442         1.548421        -3.342163
 H         2.630477         0.082345         0.432055
