19
Iteration:  2755
 C         3.465001         2.853727        -2.985097
 C         2.131849         2.469300        -2.356238
 C         1.927214         2.665882        -0.768483
 C         0.878618         1.728441        -0.242699
 C         0.279012         0.939926        -1.520485
 C         1.026136         1.505689        -2.741050
 O         0.911176         2.995417        -2.913946
 C         1.622868         0.679809         0.699023
 O         1.523629         0.696060         1.927581
 H         3.556924         3.960964        -2.995724
 H         4.392087         2.560726        -2.487459
 H         3.491856         2.384188        -3.917140
 H         2.942070         2.408243        -0.358306
 H         1.882647         3.814952        -0.415420
 H         0.149988         2.147921         0.405460
 H         0.608939        -0.066756        -1.385824
 H        -0.828158         1.040931        -1.578911
 H         0.984670         1.020396        -3.650666
 H         2.467006         0.165253         0.176831
