19
Iteration:  2913
 C         3.469657         2.631167        -2.771135
 C         2.035414         2.495577        -2.199577
 C         1.626085         2.980603        -0.808059
 C         0.768911         1.746511        -0.138991
 C         0.242874         1.036639        -1.470636
 C         1.100154         1.602354        -2.651529
 O         1.014736         2.912398        -3.147399
 C         1.700870         0.696515         0.575043
 O         1.815977         0.576417         1.783960
 H         3.784471         3.682565        -2.780655
 H         4.062577         1.983909        -2.097179
 H         3.445832         2.097564        -3.830348
 H         2.686102         3.122872        -0.235368
 H         1.172132         3.938470        -0.905628
 H         0.139675         2.109926         0.738984
 H         0.238279        -0.092267        -1.506513
 H        -0.843899         1.151471        -1.505663
 H         1.183798         0.717571        -3.469596
 H         2.103015        -0.188319         0.006284
