19
Iteration:  1262charge 0 multiplicity 1
 C         3.189622         2.894609        -3.344572
 C         2.165262         2.472585        -2.326926
 C         2.651908         1.859799        -1.016894
 C         1.154004         1.388225        -0.412629
 C         0.430008         0.946829        -1.651358
 C         0.900441         1.809442        -2.742591
 O         0.942050         3.249848        -2.262292
 C         1.258201         0.566864         0.884773
 O         1.184978         1.249143         1.953929
 H         3.454194         3.902173        -3.022976
 H         4.208535         2.365886        -3.524420
 H         2.968192         3.084222        -4.407162
 H         3.364863         1.096961        -1.241067
 H         3.072112         2.631955        -0.316637
 H         0.793218         2.374879        -0.042992
 H         0.578785        -0.103419        -1.989092
 H        -0.651758         0.959530        -1.508002
 H         0.379490         1.657220        -3.686486
 H         1.376017        -0.573363         1.053209
