19
Iteration:  2715
 C         3.373548         2.873839        -3.075674
 C         2.079083         2.539702        -2.282460
 C         2.140109         2.584180        -0.757188
 C         0.959688         1.769641        -0.278836
 C         0.487990         0.947561        -1.478747
 C         1.125056         1.481169        -2.736253
 O         0.759454         2.963906        -2.819584
 C         1.585023         0.731524         0.683032
 O         1.334355         0.729494         1.878647
 H         3.849086         3.827327        -2.751064
 H         4.048953         2.036987        -2.864279
 H         3.084349         2.956699        -4.180910
 H         3.057187         1.986695        -0.454923
 H         2.154588         3.563118        -0.466605
 H         0.213352         2.303657         0.250617
 H         0.844435        -0.125674        -1.315237
 H        -0.557076         0.923176        -1.615005
 H         1.094658         0.987692        -3.702347
 H         2.268882        -0.064312         0.303749
