19
Iteration:  2665
 C         3.214471         3.009776        -3.394503
 C         2.184507         2.512395        -2.374639
 C         2.316692         2.507667        -0.890735
 C         1.132479         1.623186        -0.175753
 C         0.658252         0.831711        -1.559868
 C         1.046501         1.623904        -2.779237
 O         0.836515         2.987281        -2.717002
 C         1.509921         0.710758         0.947201
 O         1.032016         0.745897         2.067215
 H         3.647992         3.782023        -2.797653
 H         4.043371         2.329895        -3.586466
 H         2.679590         3.398404        -4.240482
 H         3.135183         1.882582        -0.665967
 H         2.201570         3.636838        -0.473661
 H         0.272590         2.241108         0.325069
 H         1.113721        -0.122076        -1.693955
 H        -0.495032         0.813243        -1.598001
 H         1.112652         1.242467        -3.863974
 H         2.200991        -0.151018         0.769159
