19
Iteration:  4572
 C         3.066200         3.482411        -3.084251
 C         2.147113         2.589141        -2.266110
 C         2.085036         2.583697        -0.758881
 C         0.953010         1.632534        -0.389377
 C         1.105077         0.557527        -1.525798
 C         1.428380         1.396294        -2.733403
 O         0.746437         2.726766        -2.766421
 C         1.018312         1.317127         1.096957
 O         1.351003         0.253567         1.560224
 H         3.079750         4.472055        -2.742632
 H         4.094897         3.172765        -2.953264
 H         2.857746         3.577108        -4.103292
 H         3.103007         2.384998        -0.301561
 H         1.825694         3.624760        -0.292794
 H        -0.100340         1.974265        -0.468287
 H         2.037066        -0.109825        -1.345699
 H         0.144271        -0.068414        -1.590736
 H         1.454084         0.898794        -3.739681
 H         0.877448         2.267191         1.791592
