19
Iteration:  2506
 C         3.169595         2.948163        -3.338552
 C         2.188003         2.501657        -2.432670
 C         2.534988         2.489446        -0.934404
 C         1.341059         1.653465        -0.270976
 C         0.716677         0.799742        -1.396878
 C         0.934087         1.631585        -2.686780
 O         0.692674         3.008408        -2.589328
 C         1.642753         0.839479         0.951678
 O         0.750775         0.657853         1.838866
 H         3.764844         3.850791        -2.838433
 H         4.050679         2.348946        -3.719307
 H         2.845621         3.483449        -4.199541
 H         3.356573         1.822290        -0.930945
 H         2.615021         3.425924        -0.381627
 H         0.549849         2.403898         0.024986
 H         1.137449        -0.208883        -1.495738
 H        -0.394726         0.946177        -1.257096
 H         0.628758         1.321021        -3.713466
 H         2.572960         0.196098         0.865836
