19
Iteration:  3798
 C         3.239788         3.336354        -2.996315
 C         2.080674         2.640058        -2.272605
 C         1.980087         2.612219        -0.725678
 C         0.824647         1.737180        -0.366041
 C         0.786865         0.621993        -1.501022
 C         1.357398         1.401916        -2.667867
 O         0.802307         2.704766        -2.941854
 C         0.920066         1.126260         1.068891
 O         1.815904         0.420520         1.545823
 H         3.038765         4.418985        -2.996620
 H         4.121263         3.018524        -2.360593
 H         3.352369         3.156720        -4.000814
 H         2.952038         2.058507        -0.416139
 H         1.997442         3.603077        -0.130127
 H        -0.197921         2.342147        -0.390504
 H         1.514655        -0.139899        -1.301154
 H        -0.136557         0.246255        -1.764947
 H         1.688330         0.904446        -3.538918
 H         0.088608         1.270089         1.780866
