19
Iteration:  4915charge 0 multiplicity 1
 C         3.472671         2.806057        -2.325091
 C         2.045930         2.526251        -1.949040
 C         1.312028         3.108972        -0.805918
 C         0.507533         1.829758        -0.257436
 C         0.238277         0.884488        -1.338455
 C         1.319053         1.290460        -2.404827
 O         1.037389         2.497986        -3.080709
 C         1.493477         1.288067         0.748478
 O         2.304855         0.373211         0.662452
 H         3.499665         3.880656        -2.648489
 H         4.000481         2.820477        -1.340294
 H         4.184646         2.224623        -3.029697
 H         1.963154         3.617796        -0.093367
 H         0.534560         3.866411        -1.431406
 H        -0.337363         2.237110         0.315471
 H         0.295227        -0.284104        -0.949427
 H        -0.807271         0.984560        -1.742612
 H         1.608101         0.463110        -3.076899
 H         1.524440         2.026257         1.658473
