19
Iteration:  4705
 C         3.279363         3.238719        -2.713679
 C         2.006904         2.670524        -2.197150
 C         1.609750         3.010377        -0.803404
 C         0.754263         1.856612        -0.233678
 C         0.471975         0.854250        -1.415342
 C         1.477582         1.278047        -2.453665
 O         0.957669         2.455658        -3.172332
 C         1.477619         1.243750         1.015949
 O         1.771538         0.067384         1.148954
 H         3.183723         4.314962        -2.691577
 H         4.180127         2.850230        -2.166916
 H         3.368008         2.937092        -3.678936
 H         2.545973         3.027858        -0.252190
 H         1.029585         3.993270        -0.701115
 H        -0.172163         2.050902         0.294829
 H         0.540547        -0.242734        -0.995631
 H        -0.597537         1.014878        -1.804668
 H         2.099700         0.469668        -2.865964
 H         1.814554         1.963527         1.840679
