19
Iteration:  1896charge 0 multiplicity 1
 C         3.125675         3.226520        -3.351754
 C         2.174817         2.501716        -2.471732
 C         2.619304         1.937538        -1.034717
 C         1.303506         1.457473        -0.413999
 C         0.614597         0.729852        -1.502155
 C         1.004485         1.702814        -2.730589
 O         0.793044         3.113040        -2.348194
 C         1.380776         0.720590         0.906965
 O         0.914936         1.092961         2.019733
 H         3.454125         3.954851        -2.684911
 H         3.972423         2.539930        -3.651373
 H         2.669444         3.479549        -4.308633
 H         3.307061         1.119560        -0.849093
 H         3.141529         2.758859        -0.475279
 H         0.616645         2.364948        -0.250080
 H         1.176278        -0.177864        -1.914697
 H        -0.406882         0.688434        -1.420964
 H         0.778440         1.615905        -3.720324
 H         1.841488        -0.326831         0.763165
