19
Iteration:  3535charge 0 multiplicity 1
 C         3.365001         2.789769        -2.678720
 C         2.013101         2.552043        -2.229080
 C         1.747734         2.857153        -0.729572
 C         0.849965         1.512061        -0.309271
 C         0.406415         0.760253        -1.572987
 C         1.181313         1.553931        -2.776530
 O         0.855788         2.915754        -3.036020
 C         1.580753         0.626885         0.642643
 O         1.804211         0.990813         1.795697
 H         3.661859         3.834941        -2.733399
 H         4.123527         2.325124        -1.959590
 H         3.475619         2.372745        -3.679429
 H         2.554218         2.948550        -0.040475
 H         1.103813         3.811124        -0.439444
 H         0.002229         1.878257         0.323077
 H         0.907700        -0.261113        -1.451826
 H        -0.644955         0.847121        -1.797439
 H         1.545097         0.924221        -3.696228
 H         1.565701        -0.386177         0.182588
