19
Iteration:  4217charge 0 multiplicity 1
 C         3.066844         3.517949        -2.984148
 C         2.086049         2.620036        -2.258783
 C         2.197087         2.599175        -0.770535
 C         0.966710         1.758854        -0.388839
 C         0.773220         0.613545        -1.525284
 C         1.440994         1.296247        -2.751302
 O         0.811222         2.595386        -2.851082
 C         1.007510         1.263464         1.086908
 O         1.520506         0.267295         1.571571
 H         2.689523         4.547961        -2.854484
 H         4.052744         3.296444        -2.487266
 H         3.163079         3.389606        -4.167275
 H         3.066169         2.216463        -0.433193
 H         2.313171         3.616933        -0.272170
 H         0.119059         2.495637        -0.461569
 H         1.237184        -0.300114        -1.282971
 H        -0.275611         0.725114        -1.710914
 H         1.911497         0.781081        -3.590079
 H         0.532242         1.974901         1.856537
