19
Iteration:   340charge 0 multiplicity 1
 C         3.297874         2.053728        -3.257847
 C         2.113278         2.328224        -2.257396
 C         2.399662         2.305746        -0.785518
 C         1.035951         1.886689        -0.171063
 C        -0.056659         1.872637        -1.255592
 C         0.732350         1.949323        -2.626948
 O         1.157840         3.310786        -2.649644
 C         1.472355         0.555485         0.468477
 O         1.601521         0.407215         1.657145
 H         4.071867         2.736232        -3.345757
 H         3.710556         1.194114        -2.754988
 H         3.018591         1.771167        -4.294700
 H         3.256065         1.593773        -0.520304
 H         2.793649         3.268259        -0.351283
 H         0.827522         2.452656         0.751386
 H        -0.646719         0.899040        -0.970911
 H        -0.807180         2.690420        -1.346369
 H         0.491776         1.487290        -3.517602
 H         1.782588        -0.376686        -0.106494
