19
Iteration:  3556charge 0 multiplicity 1
 C         3.433294         2.894119        -2.710685
 C         1.977905         2.616835        -2.234785
 C         1.670760         2.787419        -0.752847
 C         0.825872         1.603668        -0.286534
 C         0.389025         0.865003        -1.600156
 C         1.167065         1.480409        -2.706164
 O         0.879815         2.845728        -3.143632
 C         1.474860         0.591591         0.750929
 O         1.914722         0.910638         1.835924
 H         3.829802         3.920297        -2.584167
 H         4.133692         2.272509        -2.020560
 H         3.592677         2.505609        -3.788133
 H         2.570223         2.856888        -0.206349
 H         1.211309         3.777967        -0.331095
 H        -0.170196         1.979717         0.173817
 H         0.823308        -0.217851        -1.636470
 H        -0.697971         0.955358        -1.802818
 H         1.593070         0.865087        -3.593592
 H         1.722071        -0.464301         0.217014
