19
Iteration:  2204charge 0 multiplicity 1
 C         3.392582         2.572507        -2.917062
 C         2.094596         2.564890        -2.214139
 C         2.006743         2.854214        -0.759985
 C         0.990894         1.921332        -0.144642
 C         0.232528         1.260755        -1.327307
 C         1.076368         1.567009        -2.571273
 O         0.871284         2.886634        -3.048305
 C         1.554512         0.688275         0.501366
 O         1.580558         0.379252         1.668076
 H         3.741888         3.607371        -3.157841
 H         4.032108         1.919700        -2.192267
 H         3.476028         2.007283        -3.850830
 H         2.989453         2.700204        -0.376482
 H         1.734030         3.890091        -0.585231
 H         0.346885         2.502618         0.560924
 H         0.221710         0.151566        -1.086663
 H        -0.773422         1.591753        -1.404586
 H         1.208294         0.768965        -3.396225
 H         2.191807         0.067554        -0.209385
