19
Iteration:  1696charge 0 multiplicity 1
 C         3.359338         2.644223        -3.089668
 C         2.118163         2.457230        -2.361660
 C         2.235607         2.710292        -0.802758
 C         1.072607         1.889013        -0.112446
 C         0.207586         1.317933        -1.318207
 C         1.025870         1.549777        -2.563374
 O         0.826670         2.963327        -2.969087
 C         1.779962         0.715747         0.676368
 O         1.254950         0.340103         1.696212
 H         3.715414         3.749802        -2.818772
 H         4.129857         2.063049        -2.550775
 H         3.362368         2.622134        -4.232574
 H         3.188337         2.430310        -0.347082
 H         2.145543         3.806555        -0.812170
 H         0.489274         2.425344         0.646819
 H        -0.176628         0.230895        -1.074023
 H        -0.741778         1.890883        -1.463574
 H         0.835456         0.896873        -3.388227
 H         2.724516         0.220354         0.290511
