19
Iteration:  4252charge 0 multiplicity 1
 C         3.104058         3.433543        -3.132296
 C         2.120734         2.658447        -2.307614
 C         2.113630         2.725630        -0.703712
 C         0.927048         1.839595        -0.276853
 C         0.908496         0.603663        -1.363949
 C         1.407689         1.356620        -2.638229
 O         0.843735         2.641439        -2.897841
 C         0.999241         1.233519         1.133452
 O         1.443624         0.143955         1.388373
 H         2.961806         4.535017        -3.100913
 H         4.136048         3.374613        -2.805997
 H         3.075887         3.053047        -4.276730
 H         3.022316         2.326950        -0.402994
 H         1.898605         3.752671        -0.403421
 H        -0.094598         2.201888        -0.512999
 H         1.541364        -0.177943        -1.120178
 H        -0.023378         0.027864        -1.257348
 H         1.801834         0.739015        -3.459298
 H         0.687233         1.972002         1.978699
