19
Iteration:  4582
 C         3.112747         3.425346        -3.033894
 C         2.079687         2.647022        -2.255056
 C         2.077842         2.707389        -0.748258
 C         0.950474         1.570632        -0.392474
 C         1.096375         0.537713        -1.492767
 C         1.343876         1.449319        -2.691228
 O         0.770023         2.729738        -2.836102
 C         1.084821         1.298530         1.049633
 O         1.367470         0.224016         1.574212
 H         3.074308         4.460524        -2.812538
 H         4.079225         3.020346        -2.794280
 H         2.886454         3.144962        -4.111372
 H         2.998551         2.366828        -0.195299
 H         1.780923         3.850621        -0.528722
 H        -0.009444         2.098942        -0.612314
 H         2.033990        -0.193411        -1.505698
 H         0.209155        -0.215745        -1.497244
 H         1.597318         0.999863        -3.695001
 H         0.770228         2.162481         1.736480
