19
Iteration:  1258charge 0 multiplicity 1
 C         3.209234         2.912228        -3.360543
 C         2.165409         2.457978        -2.373577
 C         2.655433         1.903058        -1.040393
 C         1.181693         1.404912        -0.379045
 C         0.405227         0.924222        -1.601904
 C         0.899806         1.812377        -2.724385
 O         0.964606         3.235977        -2.295526
 C         1.234274         0.604088         0.900011
 O         1.179456         1.202063         1.949152
 H         3.420568         3.924917        -2.924876
 H         4.130829         2.332639        -3.376383
 H         2.789505         3.061709        -4.338587
 H         3.367701         1.079364        -1.219876
 H         3.098799         2.599851        -0.311444
 H         0.805157         2.292853         0.120584
 H         0.713899        -0.114740        -1.995606
 H        -0.692382         0.982065        -1.610018
 H         0.349180         1.766295        -3.697602
 H         1.270567        -0.520767         0.909750
