19
Iteration:  2501charge 0 multiplicity 1
 C         3.211583         2.949532        -3.324198
 C         2.155130         2.509717        -2.444262
 C         2.522211         2.485904        -0.945188
 C         1.339826         1.659872        -0.269884
 C         0.668660         0.798889        -1.417998
 C         0.933942         1.659959        -2.681633
 O         0.705887         3.023461        -2.635691
 C         1.611769         0.843656         0.969255
 O         0.789574         0.614758         1.880177
 H         3.799330         3.725630        -2.815593
 H         4.018052         2.304267        -3.660878
 H         2.782759         3.485405        -4.226186
 H         3.514500         1.909219        -0.902879
 H         2.489635         3.514350        -0.521310
 H         0.652437         2.437154         0.103558
 H         1.096135        -0.217005        -1.478875
 H        -0.419766         0.839675        -1.235672
 H         0.762144         1.190774        -3.671847
 H         2.607617         0.321130         0.908028
