19
Iteration:  4014charge 0 multiplicity 1
 C         3.265518         3.201425        -2.923242
 C         2.048866         2.667496        -2.269009
 C         1.703174         3.044238        -0.778474
 C         0.856623         1.764939        -0.198367
 C         0.772182         0.710333        -1.396419
 C         1.389187         1.404192        -2.675174
 O         0.889468         2.646029        -3.115515
 C         1.343547         1.204924         1.150238
 O         1.554060         0.009522         1.418126
 H         2.909112         4.178123        -3.361889
 H         3.959820         3.231331        -1.990109
 H         3.767304         2.533501        -3.815730
 H         2.663435         3.203583        -0.389831
 H         1.063173         3.906032        -0.806677
 H        -0.174270         2.034242        -0.037762
 H         1.440638        -0.205969        -1.158741
 H        -0.288442         0.304299        -1.593789
 H         1.891289         0.943200        -3.513673
 H         1.700788         1.991759         1.921615
