19
Iteration:   746
 C         3.390146         2.364922        -3.196964
 C         2.129252         2.431416        -2.275724
 C         2.383419         2.344534        -0.840586
 C         0.959755         1.880989        -0.221264
 C         0.093069         1.383757        -1.386059
 C         0.879346         1.717466        -2.638041
 O         0.973256         3.286234        -2.725620
 C         1.378229         0.707788         0.603338
 O         1.610017         0.562498         1.813444
 H         4.187107         2.823151        -2.627809
 H         3.798102         1.279030        -3.122597
 H         3.324545         2.365265        -4.191270
 H         3.182551         1.591288        -0.678310
 H         2.580154         3.262842        -0.217405
 H         0.461976         2.660680         0.386175
 H        -0.052057         0.249385        -1.162993
 H        -0.980205         1.694048        -1.497010
 H         0.692201         1.305795        -3.679069
 H         1.496880        -0.148966        -0.114616
