19
Iteration:    45charge 0 multiplicity 1
 C         3.326073         2.724685        -3.559504
 C         2.267996         2.532624        -2.418263
 C         2.648142         2.422340        -0.929330
 C         1.300892         1.799327        -0.161823
 C         0.433499         1.099625        -1.250101
 C         0.931002         1.742681        -2.534174
 O         0.943625         3.181755        -2.587131
 C         1.481296         0.746777         0.939180
 O         0.620543         0.378889         1.675617
 H         4.088449         3.477436        -3.436952
 H         3.853215         1.776892        -3.629165
 H         2.772009         2.976761        -4.507182
 H         3.432818         1.712712        -0.858958
 H         2.925800         3.370891        -0.485391
 H         0.715630         2.572675         0.332561
 H         0.539613         0.073641        -1.352537
 H        -0.618461         1.259969        -1.079494
 H         0.645237         1.221702        -3.431924
 H         2.504033         0.386412         1.041685
