19
Iteration:   861charge 0 multiplicity 1
 C         3.415302         2.199791        -3.026030
 C         2.140222         2.437378        -2.237693
 C         2.186852         2.632989        -0.643104
 C         0.899367         2.013663        -0.056723
 C         0.010489         1.564014        -1.332947
 C         0.853649         1.672689        -2.553762
 O         1.077373         3.064875        -2.902454
 C         1.414902         0.718641         0.432485
 O         1.749423         0.350962         1.538505
 H         4.010363         3.107628        -3.167672
 H         4.026020         1.607928        -2.474014
 H         3.127931         1.533993        -3.887202
 H         3.252949         2.393909        -0.523627
 H         2.153521         3.682689        -0.419696
 H         0.428306         2.639426         0.747657
 H        -0.542054         0.667096        -1.126195
 H        -0.744352         2.342808        -1.491064
 H         0.810874         1.045925        -3.407401
 H         1.786829         0.067345        -0.389739
