19
Iteration:  4207
 C         3.092271         3.517751        -2.955018
 C         2.066002         2.599666        -2.256052
 C         2.204559         2.567113        -0.722487
 C         0.966203         1.645028        -0.410294
 C         0.783413         0.591447        -1.515958
 C         1.422658         1.345079        -2.716811
 O         0.803873         2.632935        -2.895202
 C         1.027183         1.336729         1.106950
 O         1.540735         0.312127         1.537643
 H         2.899723         4.584200        -2.723982
 H         4.122770         3.427033        -2.520530
 H         3.157349         3.227335        -4.154808
 H         3.059170         1.995954        -0.601283
 H         1.952519         3.519360        -0.201732
 H         0.147692         2.466416        -0.461997
 H         1.089920        -0.335947        -1.204400
 H        -0.260793         0.249742        -1.732118
 H         1.676556         0.994016        -3.718918
 H         0.475191         2.100169         1.697798
