19
Iteration:   906charge 0 multiplicity 1
 C         3.438717         2.211636        -3.008219
 C         2.181366         2.401089        -2.277653
 C         2.059737         2.780966        -0.745516
 C         1.053338         1.898007        -0.053191
 C         0.003727         1.670256        -1.159542
 C         0.810398         1.645152        -2.519284
 O         1.124841         3.056624        -3.015381
 C         1.533847         0.636448         0.395756
 O         1.608936         0.320863         1.553762
 H         4.093181         3.084651        -2.807906
 H         3.960387         1.479269        -2.553313
 H         3.206014         1.921071        -4.141396
 H         2.869177         2.880302         0.050166
 H         1.769873         3.850548        -0.785925
 H         0.708089         2.391895         0.939818
 H        -0.518167         0.741316        -1.071431
 H        -0.717289         2.488688        -1.111278
 H         0.650656         1.023917        -3.389901
 H         1.854287        -0.216477        -0.314730
