19
Iteration:  1704charge 0 multiplicity 1
 C         3.398418         2.704651        -3.075794
 C         2.127249         2.424052        -2.358168
 C         2.312253         2.773366        -0.823164
 C         1.121228         1.871640        -0.083412
 C         0.197712         1.296503        -1.320828
 C         0.978218         1.523047        -2.553674
 O         0.802368         2.955138        -3.008888
 C         1.683119         0.766621         0.648854
 O         1.246936         0.298627         1.747728
 H         3.696219         3.791174        -2.841990
 H         4.152803         1.946904        -2.820228
 H         3.219489         2.767578        -4.125402
 H         3.260193         2.191973        -0.510671
 H         2.358864         3.785376        -0.440078
 H         0.603136         2.513768         0.592641
 H        -0.049359         0.186563        -1.083138
 H        -0.829391         1.811471        -1.518425
 H         0.871379         0.795975        -3.456145
 H         2.674819         0.432162         0.201375
