19
Iteration:   330charge 0 multiplicity 1
 C         3.281636         2.027014        -3.197881
 C         2.136375         2.319996        -2.331412
 C         2.352537         2.239878        -0.761984
 C         1.021373         1.897880        -0.096734
 C        -0.024369         1.825239        -1.303749
 C         0.723779         1.933072        -2.544163
 O         1.176500         3.367823        -2.687788
 C         1.407229         0.540510         0.454823
 O         1.665856         0.435403         1.652039
 H         3.808546         2.931366        -3.188543
 H         3.940079         1.201422        -2.883976
 H         2.981226         1.754724        -4.210890
 H         3.157056         1.510579        -0.649245
 H         2.727431         3.207995        -0.396258
 H         0.766918         2.611219         0.724999
 H        -0.760300         0.940738        -1.400197
 H        -0.581360         2.771481        -1.147498
 H         0.454559         1.478898        -3.477700
 H         1.834068        -0.040149        -0.389851
