19
Iteration:  2318
 C         3.440992         2.636302        -2.942536
 C         2.098502         2.536970        -2.255801
 C         2.048985         2.898311        -0.827298
 C         1.019955         1.887394        -0.234605
 C         0.250584         1.139995        -1.336301
 C         0.969800         1.494516        -2.556610
 O         0.905759         2.933484        -2.908818
 C         1.703581         0.670299         0.528269
 O         1.429930         0.451077         1.695367
 H         3.945441         3.621224        -2.695298
 H         3.862316         1.726486        -2.572308
 H         3.374024         2.507994        -4.055978
 H         3.079706         2.915731        -0.382099
 H         1.572982         3.869301        -0.793263
 H         0.352842         2.215203         0.590046
 H         0.459050         0.093060        -1.187595
 H        -0.851378         1.513294        -1.352140
 H         0.836830         0.952212        -3.483514
 H         2.186052        -0.122691        -0.127781
