19
Iteration:   860charge 0 multiplicity 1
 C         3.418440         2.197075        -3.025213
 C         2.136105         2.447813        -2.238927
 C         2.189919         2.625726        -0.645576
 C         0.896220         2.005147        -0.053364
 C         0.011807         1.566397        -1.334968
 C         0.848045         1.672333        -2.552578
 O         1.076682         3.066602        -2.904570
 C         1.414463         0.727163         0.434897
 O         1.749475         0.354965         1.536592
 H         4.020744         3.100656        -3.200440
 H         4.055920         1.584280        -2.437196
 H         3.132887         1.575556        -3.867404
 H         3.258360         2.384285        -0.541979
 H         2.179762         3.655653        -0.419782
 H         0.413853         2.591151         0.747900
 H        -0.538665         0.631716        -1.116908
 H        -0.749816         2.357029        -1.481950
 H         0.823393         1.040151        -3.400023
 H         1.793029         0.047661        -0.381556
