19
Iteration:  2316
 C         3.447189         2.634548        -2.937142
 C         2.095919         2.544623        -2.270537
 C         2.034235         2.913988        -0.808572
 C         1.010722         1.889497        -0.219842
 C         0.245920         1.138815        -1.327642
 C         0.979501         1.500748        -2.583577
 O         0.896596         2.930781        -2.917079
 C         1.726768         0.663824         0.510752
 O         1.426041         0.448682         1.710595
 H         4.025777         3.570969        -2.675850
 H         3.966704         1.707732        -2.562463
 H         3.356174         2.483676        -4.096898
 H         3.031081         2.884100        -0.396672
 H         1.631522         3.855865        -0.777109
 H         0.377007         2.256096         0.540921
 H         0.415440         0.074412        -1.170218
 H        -0.801064         1.485128        -1.305294
 H         0.784618         0.961004        -3.466765
 H         2.144157        -0.171445        -0.121015
