19
Iteration:  2074charge 0 multiplicity 1
 C         3.377767         2.585779        -3.152814
 C         2.177817         2.505997        -2.314277
 C         1.959291         2.729164        -0.800927
 C         0.934811         1.776712        -0.192772
 C         0.341577         1.072939        -1.436200
 C         1.033676         1.665880        -2.599314
 O         0.943209         3.051174        -2.865231
 C         1.682908         0.729346         0.692642
 O         1.409006         0.484522         1.818542
 H         3.595811         3.699524        -3.082840
 H         4.268542         2.108727        -2.674982
 H         3.139082         2.419888        -4.173485
 H         2.977411         2.397334        -0.185357
 H         1.776170         3.797137        -0.568769
 H         0.257358         2.265735         0.487186
 H         0.237068        -0.088055        -1.330784
 H        -0.730515         1.436123        -1.524850
 H         0.845260         1.059740        -3.590614
 H         2.481903         0.155677         0.067837
