19
Iteration:  2302charge 0 multiplicity 1
 C         3.501157         2.551756        -2.955866
 C         2.091558         2.522148        -2.305698
 C         1.946394         2.893591        -0.777343
 C         1.059597         1.825444        -0.097484
 C         0.260299         1.172527        -1.314638
 C         1.003108         1.603891        -2.669997
 O         0.815715         2.964354        -3.016088
 C         1.643293         0.683738         0.587045
 O         1.491414         0.423608         1.712848
 H         3.924344         3.550963        -2.745120
 H         4.198608         1.685406        -2.627887
 H         3.460764         2.589922        -4.080377
 H         2.860980         2.765123        -0.228682
 H         1.706521         3.961607        -0.504866
 H         0.385134         2.309915         0.619482
 H         0.083809         0.065720        -1.230129
 H        -0.735589         1.483657        -1.412314
 H         1.317790         0.837616        -3.442867
 H         2.390488         0.115309        -0.065118
