19
Iteration:  2076
 C         3.384919         2.584579        -3.141607
 C         2.165442         2.509801        -2.306106
 C         1.977167         2.741500        -0.803489
 C         0.931164         1.785602        -0.189986
 C         0.326950         1.067971        -1.445247
 C         1.042724         1.670140        -2.592629
 O         0.940793         3.043780        -2.878233
 C         1.669551         0.739546         0.705553
 O         1.425371         0.468543         1.811719
 H         3.637452         3.670773        -3.070571
 H         4.213833         2.106006        -2.707208
 H         3.101334         2.344054        -4.184482
 H         2.958808         2.428769        -0.181809
 H         1.728272         3.757430        -0.538963
 H         0.286237         2.324255         0.441342
 H         0.333192        -0.070398        -1.418845
 H        -0.782798         1.425056        -1.505480
 H         0.838788         1.082362        -3.527423
 H         2.429893         0.157444         0.072178
