19
Iteration:   141
 C         3.246377         2.506914        -3.477159
 C         2.232788         2.325031        -2.364289
 C         2.545449         2.132736        -0.810063
 C         1.134943         1.917440        -0.187252
 C         0.323956         1.329980        -1.271103
 C         0.833770         1.900452        -2.542813
 O         1.116189         3.322579        -2.654115
 C         1.153097         1.177056         1.174130
 O         1.254673        -0.005547         1.367237
 H         3.705942         3.539814        -3.439196
 H         4.067648         1.797070        -3.417554
 H         2.749114         2.388765        -4.461102
 H         3.243451         1.282373        -0.720267
 H         3.021520         3.081915        -0.524816
 H         0.717701         2.938495        -0.109154
 H         0.428729         0.176136        -1.338105
 H        -0.753714         1.576700        -1.122186
 H         0.592672         1.407020        -3.504910
 H         1.225495         1.867743         1.999169
