19
Iteration:   876
 C         3.378908         2.183407        -3.018453
 C         2.174476         2.286701        -2.170146
 C         2.172895         2.788296        -0.758202
 C         0.922556         2.006567        -0.150909
 C        -0.027571         1.659519        -1.282966
 C         0.908256         1.688208        -2.517899
 O         1.075370         3.076100        -2.886704
 C         1.495821         0.649351         0.422492
 O         1.714258         0.300921         1.571214
 H         3.749350         3.198345        -3.228384
 H         4.202965         1.560463        -2.514822
 H         3.221039         1.930176        -4.101153
 H         2.808051         2.463696         0.036566
 H         2.134554         3.938566        -0.733575
 H         0.397630         2.604059         0.619752
 H        -0.316725         0.611696        -1.180606
 H        -0.883885         2.320912        -1.389180
 H         0.767928         0.921063        -3.344168
 H         1.573553        -0.116789        -0.377768
