19
Iteration:  4422charge 0 multiplicity 1
 C         3.206066         3.396122        -3.079195
 C         2.079218         2.700573        -2.360758
 C         1.825873         2.965269        -0.834776
 C         1.004635         1.753619        -0.208421
 C         0.976234         0.696071        -1.310769
 C         1.394366         1.349709        -2.582997
 O         0.759469         2.642384        -2.977597
 C         1.524314         1.088062         1.091038
 O         1.066775         0.052691         1.473874
 H         3.086279         4.538554        -3.421409
 H         4.220967         3.279338        -2.489634
 H         3.642130         2.946498        -3.975921
 H         2.793298         2.762007        -0.390203
 H         1.378631         3.873058        -0.657549
 H        -0.026715         2.083788        -0.013783
 H         1.779564        -0.002883        -1.104838
 H         0.013195         0.219027        -1.432957
 H         1.851437         0.881515        -3.479869
 H         2.466130         1.485253         1.474228
