19
Iteration:   263
 C         3.280751         2.042318        -3.245361
 C         2.193052         2.457367        -2.259299
 C         2.380251         2.351246        -0.795728
 C         1.046363         1.761046        -0.211184
 C        -0.040277         1.654730        -1.361328
 C         0.766481         1.940785        -2.597266
 O         1.219159         3.385940        -2.657594
 C         1.027038         0.691764         0.780327
 O         1.927628         0.343747         1.502166
 H         4.127984         2.620236        -3.138517
 H         3.540274         1.018313        -3.144376
 H         2.900116         2.097832        -4.312276
 H         3.187069         1.768048        -0.438925
 H         2.644001         3.334867        -0.345187
 H         0.653902         2.587127         0.405830
 H        -0.416513         0.573465        -1.412132
 H        -0.856182         2.396827        -1.265251
 H         0.602082         1.509229        -3.494049
 H         0.031416         0.251338         0.937934
