19
Iteration:  4592
 C         3.174235         3.310247        -2.989370
 C         2.042985         2.717455        -2.257025
 C         1.995229         2.798866        -0.734710
 C         0.998893         1.601738        -0.403415
 C         1.075409         0.530235        -1.477397
 C         1.335322         1.433126        -2.709761
 O         0.730720         2.746316        -2.869123
 C         1.096535         1.237399         1.041645
 O         1.396982         0.194731         1.576846
 H         3.041473         4.390094        -3.018987
 H         4.171713         3.031253        -2.653631
 H         3.083142         3.046230        -4.169634
 H         3.052694         2.584870        -0.441941
 H         1.688672         3.839652        -0.249280
 H         0.064933         2.191911        -0.505328
 H         2.057527        -0.078302        -1.261251
 H         0.151010        -0.125213        -1.616705
 H         1.729573         0.949260        -3.625857
 H         0.859692         2.149415         1.603660
