19
Iteration:  4972charge 0 multiplicity 1
 C         3.464462         2.829578        -2.247134
 C         1.895946         2.627453        -2.056947
 C         1.184343         3.172189        -0.842606
 C         0.658275         1.881448        -0.166374
 C         0.282133         0.956766        -1.410716
 C         1.308225         1.292724        -2.466930
 O         1.050936         2.427194        -3.281218
 C         1.652801         1.290769         0.830669
 O         2.222537         0.202891         0.833956
 H         3.711291         3.906502        -2.077407
 H         4.069154         2.393643        -1.500295
 H         3.944246         2.612370        -3.238065
 H         1.889244         3.672286        -0.185467
 H         0.329863         3.921924        -1.220559
 H        -0.202477         2.076579         0.488332
 H         0.456957        -0.101513        -0.935909
 H        -0.806910         1.082975        -1.643777
 H         1.726112         0.481556        -2.994123
 H         1.757997         1.841942         1.760058
