19
Iteration:  2544charge 0 multiplicity 1
 C         2.974992         3.100375        -3.501258
 C         2.161707         2.569135        -2.354726
 C         2.697741         2.277860        -0.933331
 C         1.355095         1.684649        -0.350927
 C         0.822066         0.723876        -1.419382
 C         1.122097         1.603124        -2.633509
 O         0.780128         3.003707        -2.386740
 C         1.467643         0.865219         0.898729
 O         0.625825         0.771463         1.831948
 H         3.254986         4.093968        -3.306693
 H         3.919784         2.607490        -3.613017
 H         2.300390         2.978146        -4.372881
 H         3.430336         1.401644        -1.163031
 H         3.242620         3.140800        -0.333363
 H         0.587777         2.473517        -0.339369
 H         1.341515        -0.250684        -1.447290
 H        -0.261811         0.568428        -1.223377
 H         0.766466         1.242955        -3.619962
 H         2.256237         0.072975         0.881983
