19
Iteration:  4060charge 0 multiplicity 1
 C         3.188990         3.372174        -2.822066
 C         2.092744         2.595199        -2.177879
 C         1.927631         2.874918        -0.760801
 C         0.749769         1.876679        -0.316390
 C         0.671408         0.687472        -1.488682
 C         1.522308         1.214403        -2.585543
 O         0.778535         2.523363        -2.924622
 C         1.347301         1.301479         1.019128
 O         1.558453         0.151459         1.258579
 H         2.795850         4.461735        -3.024121
 H         4.230716         3.249648        -2.138807
 H         3.410026         3.005809        -3.864625
 H         2.869327         2.605386        -0.312235
 H         1.689102         4.003447        -0.743656
 H        -0.099512         2.396239         0.066169
 H         1.086913        -0.324378        -1.187158
 H        -0.291119         0.548735        -1.965353
 H         2.002832         0.571737        -3.371461
 H         1.487365         2.192222         1.795025
