19
Iteration:  2480charge 0 multiplicity 1
 C         3.220340         2.942512        -3.348716
 C         2.089868         2.599841        -2.432268
 C         2.344027         2.463812        -0.909384
 C         1.162371         1.709696        -0.234748
 C         0.565723         0.928675        -1.401075
 C         1.034556         1.507742        -2.713875
 O         0.847020         3.100171        -2.739068
 C         1.659913         0.832841         1.002737
 O         0.935178         0.505098         1.931752
 H         4.029795         3.644536        -2.993344
 H         3.824399         2.023869        -3.507990
 H         3.015414         3.324655        -4.397707
 H         3.230453         1.803117        -0.797005
 H         2.402057         3.413495        -0.435679
 H         0.366448         2.430768         0.109684
 H         1.144781        -0.016936        -1.446709
 H        -0.528595         0.770424        -1.333549
 H         0.856917         1.120118        -3.724936
 H         2.774862         0.595033         0.935321
