19
Iteration:  4033
 C         3.279272         3.342070        -2.863357
 C         2.087520         2.660520        -2.200697
 C         1.728690         2.845685        -0.770969
 C         0.823332         1.748185        -0.331493
 C         0.712072         0.725466        -1.371593
 C         1.401851         1.270940        -2.566248
 O         0.852247         2.648897        -3.087284
 C         1.427464         1.278055         1.039170
 O         1.538767         0.090582         1.363865
 H         2.953729         4.214762        -3.381193
 H         4.100772         3.465936        -2.253665
 H         3.638313         2.730888        -3.784081
 H         2.699068         2.888056        -0.196709
 H         1.311202         3.795277        -0.605376
 H        -0.145962         2.174805         0.068315
 H         1.268956        -0.204727        -1.111101
 H        -0.346715         0.498572        -1.757610
 H         1.723758         0.581152        -3.325829
 H         1.596841         2.152051         1.712859
