19
Iteration:  3296
 C         2.853663         3.294656        -3.569917
 C         2.194266         2.570771        -2.317167
 C         2.697613         2.379403        -0.875265
 C         1.415147         1.681364        -0.256952
 C         0.917208         0.680459        -1.417577
 C         1.190807         1.519604        -2.645234
 O         0.734724         2.797633        -2.449133
 C         1.479113         0.927062         0.990391
 O         0.536015         0.710387         1.716846
 H         3.244069         4.271907        -3.164085
 H         3.721505         2.644567        -4.006990
 H         2.350531         3.476600        -4.460746
 H         3.571689         1.807229        -0.761983
 H         3.030015         3.276802        -0.412277
 H         0.728690         2.393673        -0.279654
 H         1.141285        -0.420068        -1.346631
 H        -0.134120         0.900481        -1.374894
 H         1.063757         1.050193        -3.574810
 H         2.521751         0.438692         1.247326
