19
Iteration:  1915charge 0 multiplicity 1
 C         3.215921         3.117336        -3.317343
 C         2.133562         2.526536        -2.364094
 C         2.555997         2.017910        -1.026535
 C         1.218235         1.498840        -0.358876
 C         0.716654         0.700979        -1.654815
 C         0.856493         1.728918        -2.755987
 O         0.801340         3.126746        -2.349196
 C         1.407818         0.718870         0.910403
 O         0.938991         1.078843         2.024042
 H         3.724815         3.989730        -2.861095
 H         4.029531         2.474475        -3.590177
 H         2.751359         3.382120        -4.328067
 H         3.202835         1.113981        -1.457799
 H         3.277812         2.654802        -0.438264
 H         0.685211         2.443811        -0.171488
 H         1.480219        -0.101971        -1.741505
 H        -0.291774         0.295615        -1.520265
 H         0.455701         1.518680        -3.727724
 H         2.133136        -0.139228         0.905484
