19
Iteration:  2833charge 0 multiplicity 1
 C         3.476338         2.786920        -2.780695
 C         2.122220         2.413212        -2.216907
 C         1.880443         2.829840        -0.758352
 C         0.748613         1.842117        -0.215315
 C         0.221722         1.047612        -1.485740
 C         1.036708         1.434586        -2.718559
 O         0.929319         2.855009        -3.008325
 C         1.563978         0.764675         0.573706
 O         1.778117         0.611009         1.768356
 H         3.595520         3.837386        -2.488956
 H         4.286420         2.227911        -2.352018
 H         3.385745         2.837793        -3.856847
 H         2.933267         2.710549        -0.370689
 H         1.488155         3.889784        -0.753721
 H         0.049888         2.277370         0.384690
 H         0.441067        -0.003857        -1.293918
 H        -0.844501         1.167349        -1.568140
 H         1.276621         0.803992        -3.496646
 H         2.052820        -0.023724        -0.117068
