19
Iteration:  1108
 C         3.248486         2.325994        -3.227637
 C         2.130580         2.513170        -2.340611
 C         2.379506         2.620225        -0.752702
 C         1.044665         1.948899        -0.090508
 C         0.302396         1.349905        -1.255918
 C         0.944485         1.732020        -2.597236
 O         0.953576         3.144728        -2.857259
 C         1.622124         0.766066         0.634210
 O         1.201342         0.302215         1.683350
 H         3.907493         3.224966        -3.271106
 H         3.905356         1.410853        -2.768350
 H         2.877205         2.114857        -4.179185
 H         3.421981         2.159648        -0.519961
 H         2.479492         3.786621        -0.608358
 H         0.464730         2.595365         0.596547
 H         0.291368         0.232718        -1.298879
 H        -0.694858         1.755581        -1.224780
 H         1.007249         0.919828        -3.354909
 H         2.360881         0.190630         0.007169
