19
Iteration:  1940charge 0 multiplicity 1
 C         3.150870         2.985449        -3.286926
 C         2.113835         2.483776        -2.306990
 C         2.500141         2.106221        -0.918050
 C         1.247792         1.461982        -0.379582
 C         0.645586         0.722726        -1.663750
 C         0.955818         1.749943        -2.734329
 O         0.760083         3.204424        -2.386911
 C         1.514925         0.744183         0.883668
 O         0.987343         1.039018         1.897452
 H         3.699720         3.782549        -2.840031
 H         3.951108         2.186662        -3.433287
 H         2.803274         3.061138        -4.312200
 H         3.472219         1.489025        -0.920228
 H         2.753500         3.044743        -0.318523
 H         0.629899         2.386345        -0.118003
 H         1.196755        -0.272199        -1.807712
 H        -0.398372         0.713383        -1.511648
 H         0.781887         1.493952        -3.750367
 H         2.156806        -0.197740         0.767248
