19
Iteration:   902charge 0 multiplicity 1
 C         3.435719         2.226963        -3.032809
 C         2.168734         2.363079        -2.237718
 C         2.083518         2.820396        -0.770605
 C         1.065273         1.904315        -0.017501
 C        -0.029474         1.645416        -1.178548
 C         0.806353         1.667635        -2.526736
 O         1.154222         3.034096        -2.972913
 C         1.505869         0.606201         0.377493
 O         1.620105         0.342165         1.550207
 H         4.077004         3.155933        -2.991227
 H         4.097081         1.339983        -2.513155
 H         3.243031         2.030285        -4.061420
 H         2.911160         2.930549        -0.018384
 H         1.667260         3.818339        -0.704604
 H         0.712074         2.492158         0.815002
 H        -0.570442         0.626484        -1.124292
 H        -0.755011         2.504875        -1.200329
 H         0.554359         1.058353        -3.395508
 H         1.833885        -0.178511        -0.385943
