19
Iteration:  2069
 C         3.382525         2.621131        -3.154458
 C         2.176993         2.483884        -2.313325
 C         1.974655         2.707928        -0.774524
 C         0.948285         1.746132        -0.194916
 C         0.343713         1.079805        -1.402143
 C         1.009220         1.619962        -2.655209
 O         0.942744         3.074316        -2.837165
 C         1.709404         0.711461         0.638735
 O         1.373035         0.517596         1.842691
 H         3.576838         3.685571        -3.151540
 H         4.262914         2.116981        -2.734963
 H         3.233164         2.466249        -4.270627
 H         2.863635         2.485304        -0.351587
 H         1.883370         3.796672        -0.642908
 H         0.166843         2.147936         0.530192
 H         0.128128         0.068192        -1.228505
 H        -0.655486         1.436275        -1.543043
 H         0.974246         1.101210        -3.547110
 H         2.552516         0.193233         0.156377
