19
Iteration:  4082charge 0 multiplicity 1
 C         3.166042         3.343468        -2.951349
 C         2.101531         2.653946        -2.226113
 C         1.904352         2.839050        -0.735367
 C         0.834544         1.803043        -0.295013
 C         0.768652         0.731984        -1.308643
 C         1.451846         1.282520        -2.576212
 O         0.870629         2.519843        -2.972917
 C         1.145160         1.269970         1.052475
 O         1.592638         0.148228         1.204117
 H         3.019985         4.491781        -2.761728
 H         4.240207         3.017437        -2.438970
 H         3.239375         3.306833        -4.023548
 H         2.808317         2.623051        -0.217811
 H         1.533823         3.891666        -0.494995
 H        -0.043160         2.404839        -0.182513
 H         1.237356        -0.257681        -1.058316
 H        -0.294773         0.616339        -1.466949
 H         1.825959         0.617714        -3.396294
 H         1.135502         2.086021         1.829557
