19
Iteration:  3935charge 0 multiplicity 1
 C         3.183817         3.379399        -2.897703
 C         2.105416         2.599552        -2.281235
 C         1.904854         2.798880        -0.738298
 C         0.774651         1.813288        -0.332879
 C         0.778834         0.686808        -1.364564
 C         1.458011         1.276445        -2.533838
 O         0.825333         2.542662        -2.958984
 C         1.257787         1.348734         1.029582
 O         1.546458         0.147457         1.292175
 H         3.300076         4.392161        -2.419745
 H         4.163333         2.871162        -2.795827
 H         2.952892         3.635244        -4.065002
 H         2.784776         2.776615        -0.186038
 H         1.641415         3.793799        -0.593011
 H        -0.212343         2.242936        -0.445612
 H         1.471456        -0.164783        -1.088273
 H        -0.274445         0.313178        -1.646200
 H         1.764759         0.683865        -3.394235
 H         1.475433         2.152587         1.741425
