19
Iteration:   149charge 0 multiplicity 1
 C         3.241429         2.492369        -3.434011
 C         2.213003         2.365150        -2.359145
 C         2.475934         2.078881        -0.867563
 C         1.120214         1.836411        -0.137770
 C         0.236547         1.305624        -1.268984
 C         0.900393         1.904912        -2.575753
 O         1.156111         3.336704        -2.677055
 C         1.146860         1.244437         1.225902
 O         1.344404         0.047424         1.294380
 H         3.704294         3.514855        -3.263164
 H         3.998606         1.689883        -3.398165
 H         2.791633         2.374427        -4.357427
 H         3.291402         1.236418        -0.674793
 H         3.029619         2.942128        -0.413105
 H         0.812711         2.851978         0.171771
 H         0.408254         0.118053        -1.356278
 H        -0.859462         1.568573        -1.254003
 H         0.388061         1.548565        -3.550077
 H         0.995989         1.882834         2.248193
