19
Iteration:  2129charge 0 multiplicity 1
 C         3.486879         2.593113        -2.935643
 C         2.078352         2.555181        -2.293065
 C         2.063709         2.787385        -0.817542
 C         0.952348         1.815075        -0.214157
 C         0.140879         1.156333        -1.337379
 C         0.983817         1.600589        -2.604610
 O         0.873992         2.969203        -2.968451
 C         1.713182         0.705411         0.561125
 O         1.486229         0.454611         1.712789
 H         3.992572         3.538604        -2.624228
 H         4.123501         1.766408        -2.541679
 H         3.361177         2.428548        -4.002916
 H         3.034326         2.751843        -0.182055
 H         1.580033         3.741170        -0.698325
 H         0.444201         2.322301         0.563891
 H         0.187259         0.038108        -1.110707
 H        -0.840745         1.635395        -1.332085
 H         1.273320         0.792231        -3.373434
 H         2.622091         0.258275         0.106912
