19
Iteration:   187charge 0 multiplicity 1
 C         3.387667         2.288660        -3.175974
 C         2.218192         2.252743        -2.337123
 C         2.422408         2.003184        -0.880430
 C         1.030497         1.993098        -0.204032
 C         0.158891         1.439547        -1.355791
 C         0.791513         1.908397        -2.627583
 O         1.001586         3.321816        -2.435821
 C         1.073140         1.222993         0.976423
 O         1.732560         0.183796         1.182838
 H         4.045725         3.017103        -2.795769
 H         3.924015         1.325691        -3.149467
 H         3.141562         2.545303        -4.315420
 H         2.952455         1.136513        -0.758884
 H         2.892452         2.814361        -0.328287
 H         0.706488         3.018198         0.005330
 H         0.225374         0.379868        -1.304652
 H        -0.888709         1.719445        -1.318738
 H         0.419074         1.611300        -3.537031
 H         0.437891         1.651501         1.827726
