19
Iteration:  4395charge 0 multiplicity 1
 C         3.087359         3.427898        -2.924491
 C         2.084718         2.586270        -2.222673
 C         1.949559         2.936964        -0.754177
 C         1.015619         1.754053        -0.272593
 C         0.780431         0.715366        -1.477793
 C         1.462512         1.297906        -2.633010
 O         0.831436         2.564288        -3.010008
 C         1.562543         1.180080         1.011390
 O         1.135560         0.119862         1.507039
 H         2.746005         4.513122        -3.023183
 H         4.148453         3.518530        -2.635722
 H         3.154176         3.058519        -4.010276
 H         2.926900         2.899496        -0.240102
 H         1.392324         3.973570        -0.535898
 H         0.032483         2.208000        -0.015469
 H         1.159946        -0.327290        -1.239075
 H        -0.278499         0.482288        -1.746565
 H         1.916159         0.896871        -3.522336
 H         2.582634         1.622845         1.315400
