19
Iteration:  4238
 C         3.117407         3.503984        -3.104838
 C         2.168911         2.568217        -2.275191
 C         2.128155         2.660267        -0.787738
 C         0.897986         1.742795        -0.336712
 C         0.878826         0.728595        -1.392501
 C         1.468243         1.342324        -2.656758
 O         0.775809         2.599603        -2.893798
 C         1.005670         1.248691         1.130120
 O         1.472246         0.166044         1.484666
 H         2.626966         4.464963        -2.967078
 H         4.171173         3.426066        -2.724410
 H         3.061155         3.275373        -4.237457
 H         3.020367         2.237639        -0.376795
 H         2.076716         3.728564        -0.337177
 H         0.207676         2.544257        -0.230808
 H         1.520571        -0.121699        -1.011769
 H        -0.108567         0.526095        -1.779571
 H         1.600774         0.816742        -3.604349
 H         0.449624         1.889578         1.917294
