19
Iteration:  3035
 C         3.503401         2.708062        -2.803754
 C         2.030233         2.585919        -2.266150
 C         1.803473         2.960844        -0.798036
 C         0.978016         1.759412        -0.183322
 C         0.352494         1.093571        -1.369111
 C         1.167272         1.501810        -2.621099
 O         0.750549         2.834901        -3.139108
 C         1.684351         0.664927         0.556481
 O         1.568690         0.550764         1.755828
 H         3.927758         3.717353        -2.629496
 H         4.030206         1.891195        -2.280180
 H         3.471523         2.391087        -3.756281
 H         2.851233         3.006880        -0.224964
 H         1.421110         3.890996        -0.539580
 H         0.115787         2.119541         0.447571
 H         0.365261         0.002338        -1.171708
 H        -0.686656         1.368169        -1.507372
 H         1.365620         0.781360        -3.381930
 H         2.373936        -0.022829         0.012826
