19
Iteration:  1324charge 0 multiplicity 1
 C         3.321444         2.911865        -3.192488
 C         2.159026         2.403310        -2.368275
 C         2.463773         1.860436        -0.988829
 C         1.052018         1.494079        -0.427698
 C         0.395544         0.842951        -1.658591
 C         0.811892         1.874098        -2.774066
 O         0.940932         3.197867        -2.338992
 C         1.351972         0.655964         0.818426
 O         1.351056         1.231781         1.972858
 H         3.818989         3.522386        -2.428373
 H         3.971252         2.115040        -3.506068
 H         2.895142         3.545760        -3.884016
 H         3.219112         1.047034        -1.100631
 H         2.991970         2.661628        -0.385520
 H         0.497145         2.409621        -0.281819
 H         0.979854        -0.105022        -1.848178
 H        -0.656971         0.637153        -1.527555
 H         0.259962         1.829105        -3.758016
 H         1.257786        -0.409398         0.729021
