19
Iteration:  4019
 C         3.281256         3.238041        -2.918565
 C         2.024519         2.621900        -2.288279
 C         1.710746         2.996640        -0.794577
 C         0.853318         1.751873        -0.162375
 C         0.743527         0.679110        -1.414600
 C         1.414976         1.421655        -2.637175
 O         0.895959         2.656852        -3.113593
 C         1.366816         1.207466         1.103377
 O         1.546812         0.054620         1.405662
 H         2.921101         4.188594        -3.294845
 H         4.009743         3.391330        -2.125177
 H         3.622085         2.608860        -3.620514
 H         2.722973         3.047511        -0.219703
 H         1.097520         3.966846        -0.833932
 H        -0.196459         2.114200         0.027090
 H         1.298747        -0.181338        -1.160576
 H        -0.232221         0.282663        -1.473779
 H         1.872676         0.850926        -3.483683
 H         1.637298         1.926439         1.865030
