19
Iteration:  3744charge 0 multiplicity 1
 C         3.284221         3.295496        -2.864567
 C         2.101312         2.570771        -2.169044
 C         1.835999         2.712250        -0.702036
 C         0.717587         1.816038        -0.361299
 C         0.588154         0.754229        -1.432503
 C         1.409056         1.282536        -2.604601
 O         0.884965         2.605179        -2.941780
 C         0.924577         0.997331         0.934198
 O         2.027571         0.548733         1.308721
 H         3.568017         4.314966        -2.429699
 H         4.229358         2.667651        -2.620198
 H         3.066770         3.290700        -3.886846
 H         2.676595         2.505389        -0.206847
 H         1.835678         3.758923        -0.397749
 H        -0.301046         2.367813        -0.197017
 H         1.035100        -0.215087        -1.195116
 H        -0.379164         0.618029        -1.789633
 H         1.823998         0.825416        -3.439390
 H         0.107617         0.854650         1.698452
