19
Iteration:  1150charge 0 multiplicity 1
 C         3.338185         2.443065        -3.300176
 C         2.144127         2.397228        -2.405140
 C         2.359305         2.511705        -0.906459
 C         1.148681         1.821340        -0.189445
 C         0.345646         1.172091        -1.383366
 C         0.818525         1.796810        -2.627556
 O         0.982634         3.286676        -2.684562
 C         1.592943         0.706163         0.715043
 O         1.155493         0.467106         1.898500
 H         4.029279         3.236831        -2.973618
 H         3.787707         1.436880        -2.958506
 H         3.206268         2.402099        -4.345797
 H         3.261717         2.078593        -0.495832
 H         2.220188         3.602877        -0.728627
 H         0.429693         2.496139         0.327520
 H         0.306565         0.103168        -1.466019
 H        -0.695255         1.331729        -1.275429
 H         0.347460         1.492839        -3.604478
 H         2.498087         0.199639         0.303714
