19
Iteration:  4063
 C         3.206162         3.388300        -2.837421
 C         2.069747         2.550582        -2.191984
 C         1.928470         2.870009        -0.744829
 C         0.777349         1.885251        -0.329400
 C         0.681040         0.701950        -1.486930
 C         1.533822         1.235698        -2.570337
 O         0.781059         2.521345        -2.924753
 C         1.333982         1.316450         1.030026
 O         1.560432         0.148137         1.246477
 H         2.800646         4.424716        -2.912136
 H         4.146711         3.242563        -2.229243
 H         3.266229         2.962202        -3.768329
 H         2.983272         2.564346        -0.366385
 H         1.616007         3.987845        -0.732201
 H        -0.196919         2.365678        -0.004759
 H         0.996053        -0.224552        -1.110695
 H        -0.231141         0.475118        -1.965140
 H         1.965350         0.597488        -3.371607
 H         1.401314         2.091113         1.892258
