19
Iteration:  3379
 C         3.235846         3.029572        -3.266995
 C         2.078188         2.598860        -2.312883
 C         2.249875         2.564654        -0.804890
 C         1.109450         1.599227        -0.294523
 C         0.750924         0.716329        -1.543073
 C         1.206679         1.482149        -2.779213
 O         0.698384         2.942812        -2.645483
 C         1.630125         0.886195         0.877344
 O         0.983109         0.749607         1.904613
 H         3.305009         4.085348        -3.217199
 H         4.105288         2.714916        -2.837263
 H         2.921837         2.798931        -4.297366
 H         3.179052         2.014363        -0.690457
 H         2.190868         3.591620        -0.426429
 H         0.183717         2.291570        -0.059401
 H         1.294547        -0.244268        -1.517321
 H        -0.285851         0.423089        -1.626026
 H         1.033903         1.048545        -3.750548
 H         2.590661         0.290098         0.810938
