19
Iteration:  2983charge 0 multiplicity 1
 C         3.446468         2.801713        -2.879873
 C         2.124695         2.445740        -2.153180
 C         1.797058         2.827819        -0.709856
 C         0.795261         1.742967        -0.119429
 C         0.111316         1.095545        -1.467798
 C         1.107804         1.476906        -2.579534
 O         1.030430         2.761278        -3.065760
 C         1.711140         0.833919         0.506498
 O         1.712952         0.581707         1.667768
 H         3.521113         3.957856        -2.845928
 H         4.266862         2.275631        -2.306164
 H         3.295831         2.414829        -3.840275
 H         2.608606         2.900588        -0.065689
 H         1.317577         3.820505        -0.623316
 H        -0.010468         2.181726         0.595235
 H        -0.316919         0.119554        -1.453504
 H        -0.835512         1.640767        -1.775615
 H         1.367531         0.821039        -3.303177
 H         2.358851         0.286127        -0.154142
