19
Iteration:  3471charge 0 multiplicity 1
 C         3.316235         3.048355        -2.838510
 C         2.023250         2.472136        -2.198353
 C         1.950950         2.628178        -0.719084
 C         0.813543         1.588177        -0.299618
 C         0.388954         0.876086        -1.591896
 C         1.214553         1.479918        -2.751866
 O         0.884534         2.788962        -2.984682
 C         1.565136         0.722548         0.658319
 O         1.628139         0.958352         1.857156
 H         3.666533         4.046230        -2.554320
 H         4.095201         2.370490        -2.366675
 H         3.325186         3.048931        -3.880982
 H         2.993969         2.229896        -0.401593
 H         1.457897         3.652517        -0.434805
 H         0.021584         2.036103         0.205264
 H         0.701437        -0.167260        -1.459129
 H        -0.713783         0.948377        -1.763216
 H         1.270288         0.859955        -3.701918
 H         2.285733        -0.148492         0.317288
