19
Iteration:    65charge 0 multiplicity 1
 C         3.214800         2.594001        -3.446898
 C         2.164681         2.430765        -2.443815
 C         2.588196         2.356494        -0.930169
 C         1.398528         1.965708        -0.129072
 C         0.576204         1.183812        -1.215604
 C         0.928310         1.723252        -2.574586
 O         0.948136         3.228905        -2.572623
 C         1.506017         0.894435         1.029899
 O         0.602466         0.246985         1.468116
 H         3.808045         3.519017        -3.110411
 H         3.953319         1.792021        -3.455628
 H         2.805714         2.915448        -4.389399
 H         3.345970         1.655717        -0.826879
 H         2.901565         3.346293        -0.625360
 H         0.828300         2.834704         0.198827
 H         0.810248         0.190231        -1.122753
 H        -0.501262         1.220429        -1.038865
 H         0.603197         1.235905        -3.557728
 H         2.663529         0.506491         1.156157
