19
Iteration:  4993charge 0 multiplicity 1
 C         3.426890         2.967036        -2.270065
 C         1.982447         2.545568        -2.105795
 C         1.281000         3.136000        -0.901987
 C         0.635094         1.895039        -0.180025
 C         0.348471         0.905861        -1.307280
 C         1.353748         1.262537        -2.394822
 O         0.992039         2.457818        -3.181037
 C         1.611928         1.302545         0.849802
 O         2.104552         0.178524         0.764004
 H         3.725067         4.018732        -2.111471
 H         4.116149         2.423958        -1.650662
 H         3.809909         2.820086        -3.338106
 H         1.885651         3.718768        -0.288606
 H         0.463693         3.676028        -1.570871
 H        -0.216522         2.223393         0.411949
 H         0.358493        -0.233901        -1.037818
 H        -0.623995         1.129019        -1.803507
 H         1.828595         0.436840        -2.814749
 H         2.031703         2.009070         1.582590
