19
Iteration:  4951charge 0 multiplicity 1
 C         3.333854         2.771179        -2.273990
 C         1.931962         2.589818        -2.076949
 C         1.250254         3.079118        -0.842995
 C         0.592601         1.799785        -0.128643
 C         0.238791         0.903153        -1.404507
 C         1.348007         1.317616        -2.402435
 O         1.136948         2.549979        -3.291914
 C         1.625636         1.325257         0.826884
 O         2.269955         0.289349         0.798958
 H         3.601151         3.811937        -2.279898
 H         3.739663         2.391970        -1.364990
 H         3.766001         2.194445        -3.117131
 H         1.861404         3.643858        -0.132309
 H         0.349024         3.775621        -0.949333
 H        -0.354812         2.123728         0.333675
 H         0.229576        -0.196211        -1.021496
 H        -0.787382         1.265554        -1.680754
 H         1.933111         0.643485        -2.959867
 H         1.910226         2.070265         1.666190
