19
Iteration:    21
 C         3.179829         2.737073        -3.426679
 C         2.209543         2.441435        -2.322924
 C         2.552086         2.292747        -0.839431
 C         1.279587         1.690486        -0.242723
 C         0.466761         1.080623        -1.446022
 C         1.035426         1.729701        -2.705975
 O         0.981918         3.266500        -2.571237
 C         1.494383         0.658312         0.878270
 O         0.763319         0.618630         1.825471
 H         3.854557         3.631655        -3.150533
 H         3.892065         1.916899        -3.589872
 H         2.640737         3.048058        -4.274873
 H         3.380049         1.690941        -0.734708
 H         2.711321         3.284451        -0.435406
 H         0.646898         2.454688         0.206056
 H         0.363802         0.077120        -1.529690
 H        -0.547639         1.481031        -1.289816
 H         0.746935         1.309460        -3.754882
 H         2.336495        -0.000421         0.796945
