19
Iteration:  4885
 C         3.419365         2.884578        -2.390312
 C         1.995314         2.549103        -2.001786
 C         1.360088         3.086383        -0.687253
 C         0.502271         1.883892        -0.162898
 C         0.323491         0.918553        -1.290443
 C         1.403082         1.228460        -2.414269
 O         1.091828         2.380402        -3.153214
 C         1.417617         1.255378         0.925555
 O         2.196165         0.439478         0.478848
 H         3.416430         3.931970        -2.622577
 H         3.971939         2.794198        -1.518578
 H         3.874165         2.220252        -3.189904
 H         2.221488         3.417185        -0.126289
 H         0.969889         4.088379        -0.917613
 H        -0.424471         2.311400         0.300368
 H         0.377244        -0.210600        -1.054820
 H        -0.650437         1.117038        -1.793244
 H         1.796039         0.424287        -2.985194
 H         1.390100         1.695903         1.930383
