19
Iteration:  3271charge 0 multiplicity 1
 C         2.914045         3.244642        -3.467654
 C         2.139052         2.543322        -2.355247
 C         2.580207         2.421035        -0.982329
 C         1.433336         1.729201        -0.267181
 C         0.944438         0.674864        -1.381028
 C         1.127857         1.468335        -2.598982
 O         0.768552         2.908264        -2.445794
 C         1.540842         0.843241         1.020254
 O         0.529604         0.723650         1.636191
 H         3.360123         4.148511        -3.178917
 H         3.671035         2.555531        -3.840553
 H         2.422274         3.414583        -4.477611
 H         3.536101         1.852554        -0.811562
 H         2.994171         3.449113        -0.537739
 H         0.667668         2.553630        -0.067377
 H         1.618356        -0.182375        -1.262351
 H        -0.068549         0.292748        -1.300691
 H         0.883280         0.980738        -3.557768
 H         2.530271         0.341761         1.417441
