19
Iteration:  2283charge 0 multiplicity 1
 C         3.368142         2.588689        -2.935448
 C         2.085574         2.568336        -2.270158
 C         2.009959         2.809114        -0.769812
 C         0.892795         1.807600        -0.178867
 C         0.200346         1.267258        -1.433459
 C         1.056499         1.596131        -2.602703
 O         0.904487         2.959778        -3.088608
 C         1.767479         0.726227         0.696986
 O         1.548795         0.342498         1.788553
 H         4.106058         3.420854        -2.853295
 H         3.958547         1.739799        -2.521895
 H         3.232135         2.343886        -4.069266
 H         2.970756         2.917489        -0.274048
 H         1.641160         3.771309        -0.731474
 H         0.212567         2.361772         0.386746
 H         0.023271         0.187734        -1.397004
 H        -0.855620         1.577956        -1.515363
 H         0.930571         0.871038        -3.343563
 H         2.538337         0.219650         0.067884
