19
Iteration:  4895charge 0 multiplicity 1
 C         3.430567         2.902899        -2.332250
 C         2.002104         2.486082        -2.009645
 C         1.367295         3.077489        -0.802822
 C         0.519278         1.934426        -0.134632
 C         0.302140         0.883079        -1.413669
 C         1.360000         1.182514        -2.349242
 O         1.065434         2.479483        -3.100841
 C         1.454654         1.309443         0.867669
 O         2.226405         0.415499         0.526016
 H         3.630136         3.862323        -2.783130
 H         4.060200         2.784911        -1.510002
 H         3.900382         2.179268        -3.111573
 H         2.123053         3.217037        -0.081605
 H         0.565488         3.923502        -0.914873
 H        -0.505405         2.221041         0.179744
 H         0.365811        -0.196898        -0.856795
 H        -0.766774         0.973759        -1.722873
 H         1.842194         0.412453        -2.898468
 H         1.489793         1.582934         1.967438
