19
Iteration:  2039charge 0 multiplicity 1
 C         3.319554         2.792438        -3.096525
 C         2.142952         2.513858        -2.301127
 C         2.216272         2.602738        -0.831042
 C         1.110806         1.730798        -0.285980
 C         0.250275         1.081029        -1.477921
 C         0.994068         1.632002        -2.640281
 O         0.853427         2.957319        -2.832741
 C         1.646786         0.691357         0.753868
 O         1.306405         0.593924         1.859702
 H         3.534676         3.865459        -2.888235
 H         4.268895         2.182127        -2.812952
 H         3.304927         2.561211        -4.166940
 H         3.340395         2.197012        -0.506167
 H         2.277740         3.706436        -0.479474
 H         0.287171         2.278729         0.302312
 H         0.140557        -0.066436        -1.406821
 H        -0.724690         1.542796        -1.602587
 H         0.974910         1.045159        -3.634606
 H         2.437410        -0.050114         0.347570
