19
Iteration:  2215
 C         3.391842         2.529086        -2.881350
 C         2.074614         2.458341        -2.285696
 C         2.097182         2.946572        -0.769718
 C         0.960631         1.904884        -0.159780
 C         0.211450         1.169970        -1.354252
 C         1.072408         1.507916        -2.518017
 O         0.843587         2.991971        -3.014437
 C         1.646475         0.738007         0.462938
 O         1.541857         0.396130         1.678022
 H         3.718614         3.611169        -2.956488
 H         4.288819         2.264872        -2.137910
 H         3.393547         2.004594        -3.847155
 H         2.962487         2.873547        -0.177057
 H         1.766918         3.976887        -0.666096
 H         0.396082         2.201030         0.756887
 H        -0.014255         0.061156        -1.240645
 H        -0.736996         1.598702        -1.562716
 H         1.160885         0.791411        -3.423052
 H         2.018992        -0.040370        -0.271955
