19
Iteration:  1191
 C         3.252332         2.689926        -3.382596
 C         2.176304         2.510742        -2.393619
 C         2.498892         2.207374        -0.833575
 C         1.172717         1.620596        -0.261486
 C         0.319868         1.151844        -1.432686
 C         0.955486         1.745590        -2.656357
 O         0.931603         3.215008        -2.635329
 C         1.463148         0.674474         0.767969
 O         1.121095         0.741609         1.977309
 H         3.882606         3.578687        -3.170905
 H         3.884293         1.888478        -3.602593
 H         2.821828         2.983370        -4.402394
 H         3.326444         1.451931        -0.920473
 H         2.874234         2.984937        -0.207360
 H         0.666245         2.533802         0.095358
 H         0.215048         0.019184        -1.391530
 H        -0.745072         1.557384        -1.384927
 H         0.616268         1.348104        -3.629960
 H         2.117512        -0.231264         0.500297
