19
Iteration:  2022charge 0 multiplicity 1
 C         3.360573         2.865695        -3.145269
 C         2.113614         2.568624        -2.399553
 C         2.265237         2.459468        -0.833121
 C         1.033710         1.768102        -0.149209
 C         0.392677         1.084933        -1.430123
 C         1.045761         1.498318        -2.728772
 O         0.813376         3.064658        -2.864406
 C         1.535236         0.687549         0.757965
 O         1.293907         0.595400         1.920338
 H         3.624664         3.929620        -3.014054
 H         4.130283         2.219006        -2.817233
 H         3.146203         2.851535        -4.214660
 H         3.140084         1.953346        -0.583505
 H         2.444921         3.398830        -0.397143
 H         0.545942         2.478401         0.455494
 H         0.439388         0.001403        -1.298170
 H        -0.747217         1.141364        -1.340396
 H         0.971378         0.860654        -3.644240
 H         2.192862         0.029969         0.130926
