19
Iteration:  4793
 C         3.377328         2.899801        -2.408512
 C         1.966925         2.599177        -2.150011
 C         1.420230         3.113542        -0.758106
 C         0.604386         1.844571        -0.216907
 C         0.357100         0.795519        -1.368677
 C         1.331848         1.287975        -2.404101
 O         1.018115         2.556846        -3.225576
 C         1.530295         1.305346         0.851446
 O         2.095457         0.242879         0.894116
 H         3.513400         3.981357        -2.469838
 H         4.045174         2.490377        -1.612348
 H         3.733634         2.419382        -3.227704
 H         2.162133         3.335996        -0.087429
 H         0.797034         4.074955        -0.853529
 H        -0.290475         2.055020         0.327395
 H         0.675907        -0.197019        -0.896733
 H        -0.641869         0.603312        -1.850953
 H         1.944867         0.750434        -3.132773
 H         1.782614         2.124447         1.548561
