19
Iteration:   758charge 0 multiplicity 1
 C         3.330569         2.255495        -3.111800
 C         2.089164         2.522520        -2.328161
 C         2.269524         2.412330        -0.792193
 C         0.962717         1.897897        -0.170164
 C         0.105217         1.392711        -1.395715
 C         0.931214         1.715519        -2.608792
 O         1.046443         3.274855        -2.772305
 C         1.372521         0.639127         0.598750
 O         1.644676         0.556226         1.755604
 H         4.140456         2.933203        -2.944410
 H         3.556335         1.140622        -3.108889
 H         3.068913         2.676294        -3.974741
 H         3.111724         1.675560        -0.688087
 H         2.703998         3.359252        -0.406933
 H         0.545126         2.704162         0.418373
 H         0.048229         0.238894        -1.448411
 H        -0.899762         1.878049        -1.331390
 H         1.001124         0.966449        -3.470417
 H         1.517941        -0.266110        -0.045179
