19
Iteration:  1932charge 0 multiplicity 1
 C         3.115120         2.982499        -3.254988
 C         2.112831         2.531450        -2.373371
 C         2.576464         2.072716        -0.948259
 C         1.249586         1.481354        -0.410912
 C         0.665399         0.763537        -1.629800
 C         0.928804         1.787459        -2.751392
 O         0.795604         3.151197        -2.374232
 C         1.495914         0.732775         0.861411
 O         0.963843         1.059304         1.958029
 H         3.666348         3.896380        -2.921386
 H         3.826061         2.123044        -3.206104
 H         2.795284         3.308336        -4.216609
 H         3.281819         1.297732        -0.958079
 H         2.835247         2.917126        -0.334157
 H         0.443791         2.170279        -0.157818
 H         1.211928        -0.162309        -1.976794
 H        -0.366245         0.283655        -1.465464
 H         0.774591         1.389903        -3.858879
 H         2.206627        -0.175357         0.895459
