19
Iteration:  1266
 C         3.195774         2.893990        -3.338705
 C         2.165810         2.470166        -2.306988
 C         2.622106         1.834811        -0.986085
 C         1.159483         1.373429        -0.434353
 C         0.438628         0.947195        -1.690394
 C         0.893430         1.825475        -2.748033
 O         0.928133         3.255324        -2.238054
 C         1.273996         0.556802         0.899124
 O         1.192521         1.274111         1.940369
 H         3.554041         3.924058        -3.095299
 H         4.104749         2.385819        -3.491822
 H         2.948815         3.059416        -4.447071
 H         3.405185         1.014478        -1.243219
 H         3.044914         2.594968        -0.367182
 H         0.751059         2.374247        -0.218979
 H         0.521810        -0.100317        -1.927514
 H        -0.661247         0.988305        -1.417555
 H         0.511927         1.602838        -3.748663
 H         1.466182        -0.496260         1.045413
