19
Iteration:   163charge 0 multiplicity 1
 C         3.321416         2.424492        -3.332968
 C         2.186392         2.397381        -2.328273
 C         2.477643         2.068275        -0.868568
 C         1.071159         1.987076        -0.155384
 C         0.150382         1.299320        -1.350712
 C         0.765672         1.859547        -2.633150
 O         1.173737         3.322480        -2.580468
 C         1.155973         1.225504         1.199285
 O         1.509117         0.068800         1.266462
 H         3.948942         3.345085        -3.256351
 H         4.001701         1.589538        -3.264775
 H         2.863580         2.508255        -4.343702
 H         2.856575         1.046327        -0.965464
 H         3.164350         2.751953        -0.309637
 H         0.642217         2.992990        -0.126942
 H         0.201062         0.142040        -1.377906
 H        -0.914221         1.548924        -1.137817
 H         0.601821         1.460571        -3.615299
 H         0.752412         1.825592         2.085795
