19
Iteration:  4428
 C         3.284022         3.348533        -3.092364
 C         2.013565         2.778193        -2.341743
 C         1.850126         2.963795        -0.826502
 C         0.988627         1.766051        -0.180036
 C         1.023299         0.633647        -1.342332
 C         1.417034         1.393190        -2.612845
 O         0.717437         2.636579        -2.963585
 C         1.515014         1.103943         1.118524
 O         1.052306         0.036960         1.464644
 H         2.962590         4.330188        -3.388599
 H         4.200699         3.361164        -2.514154
 H         3.538824         2.877096        -4.076728
 H         2.895379         2.924408        -0.390580
 H         1.398226         4.058856        -0.748993
 H        -0.044244         2.153492        -0.143978
 H         1.906659        -0.024773        -1.124807
 H         0.028031         0.142333        -1.480335
 H         1.730926         0.707345        -3.404982
 H         2.519705         1.425953         1.603062
