19
Iteration:   781
 C         3.383236         2.221724        -3.180423
 C         2.153089         2.390194        -2.275430
 C         2.278156         2.569799        -0.628246
 C         0.917714         1.779108        -0.153875
 C         0.033059         1.489767        -1.390661
 C         0.856391         1.836462        -2.664855
 O         1.054953         3.227333        -2.888850
 C         1.424875         0.566237         0.576145
 O         1.693967         0.545918         1.776766
 H         4.166725         2.927742        -3.026204
 H         3.670756         1.148516        -3.074836
 H         3.143844         2.523578        -4.096167
 H         3.320385         2.239280        -0.324996
 H         2.105653         3.586375        -0.320467
 H         0.464207         2.477836         0.501689
 H        -0.065213         0.358416        -1.454581
 H        -0.943851         2.006677        -1.250487
 H         0.705226         1.125556        -3.536230
 H         1.480509        -0.380473         0.015105
