19
Iteration:   715
 C         3.350614         2.482155        -3.273452
 C         2.128400         2.272426        -2.372975
 C         2.357043         2.213761        -0.924080
 C         1.049947         1.719696        -0.249124
 C         0.100737         1.349099        -1.386789
 C         0.778060         1.824374        -2.681258
 O         1.131966         3.310785        -2.608214
 C         1.427177         0.618337         0.711185
 O         1.440214         0.722677         1.894689
 H         3.767905         3.489152        -2.952872
 H         4.192025         1.685381        -3.094323
 H         3.068977         2.646496        -4.345058
 H         3.305312         1.685772        -0.631929
 H         2.659842         3.236156        -0.574524
 H         0.700574         2.491339         0.433069
 H         0.171858         0.231168        -1.409092
 H        -0.961352         1.750678        -1.374380
 H         0.496713         1.541630        -3.771898
 H         1.718574        -0.424703         0.298570
