19
Iteration:  3022
 C         3.413652         2.706384        -2.800828
 C         2.090347         2.625771        -2.248739
 C         1.816640         2.976773        -0.804163
 C         0.900578         1.848438        -0.166466
 C         0.285367         1.026309        -1.427256
 C         1.117334         1.490477        -2.634167
 O         0.870478         2.792048        -3.108573
 C         1.655363         0.688993         0.602146
 O         1.649965         0.486207         1.790315
 H         3.883453         3.675429        -2.721291
 H         4.175641         2.108534        -2.316957
 H         3.494608         2.644433        -3.882822
 H         2.870143         3.130289        -0.259330
 H         1.211541         3.851598        -0.985040
 H         0.282368         2.274461         0.603808
 H         0.204244        -0.100855        -1.366843
 H        -0.670338         1.512190        -1.565849
 H         1.404863         0.726706        -3.466664
 H         2.044826        -0.027499        -0.168048
