19
Iteration:  1666charge 0 multiplicity 1
 C         3.391725         2.480163        -3.126555
 C         2.157729         2.505893        -2.265062
 C         2.096860         2.925448        -0.745014
 C         1.062953         1.853781        -0.172043
 C         0.152548         1.193027        -1.325169
 C         0.961299         1.634128        -2.562999
 O         0.958409         3.022506        -2.944335
 C         1.750809         0.698393         0.600950
 O         1.342152         0.312426         1.722228
 H         3.604146         3.462894        -3.315933
 H         4.298098         2.115192        -2.654468
 H         3.228977         1.888116        -4.059371
 H         3.023469         3.029220        -0.217684
 H         1.687297         3.946851        -0.904870
 H         0.367135         2.229326         0.615255
 H         0.039071         0.157375        -1.273937
 H        -0.776345         1.667688        -1.309777
 H         0.722746         1.051395        -3.396565
 H         2.686030         0.209244         0.249363
