19
Iteration:  2070
 C         3.378809         2.611455        -3.155745
 C         2.181767         2.490141        -2.315512
 C         1.966916         2.709947        -0.779976
 C         0.946178         1.752573        -0.196226
 C         0.345299         1.078279        -1.409338
 C         1.013067         1.631263        -2.641992
 O         0.943443         3.069680        -2.842433
 C         1.705923         0.714382         0.647955
 O         1.379263         0.511100         1.839576
 H         3.568545         3.687352        -3.137593
 H         4.284293         2.110271        -2.705686
 H         3.214808         2.472646        -4.251211
 H         2.873374         2.460673        -0.321975
 H         1.867024         3.812353        -0.629646
 H         0.170382         2.175563         0.541972
 H         0.135372         0.038697        -1.236271
 H        -0.639022         1.426516        -1.542695
 H         0.942377         1.093474        -3.558848
 H         2.540528         0.185417         0.131641
