19
Iteration:  4680charge 0 multiplicity 1
 C         3.260515         3.369730        -2.864307
 C         2.100358         2.610257        -2.199207
 C         1.735009         3.021076        -0.739233
 C         0.741851         1.902891        -0.280490
 C         0.580969         0.800251        -1.383036
 C         1.493879         1.227043        -2.473653
 O         0.882353         2.436110        -3.023010
 C         1.403913         1.238575         0.979892
 O         1.651324         0.049689         1.158131
 H         3.037573         4.408479        -2.685773
 H         4.172405         3.028864        -2.341226
 H         3.478812         3.089625        -3.932844
 H         2.565673         3.105139        -0.111584
 H         1.148548         3.890661        -0.734065
 H        -0.199506         2.145247         0.150182
 H         0.681375        -0.130256        -0.876871
 H        -0.431235         0.828977        -1.844420
 H         2.022104         0.455284        -3.098205
 H         1.772119         1.939768         1.832837
