19
Iteration:  4201charge 0 multiplicity 1
 C         3.117239         3.482249        -2.929213
 C         2.120927         2.623223        -2.277240
 C         2.146214         2.508920        -0.718438
 C         0.943594         1.616576        -0.365113
 C         0.790659         0.598994        -1.522263
 C         1.424586         1.370279        -2.694051
 O         0.762216         2.669725        -2.911229
 C         1.022864         1.356940         1.060770
 O         1.554335         0.342181         1.527603
 H         2.874765         4.545385        -2.818031
 H         4.151583         3.389237        -2.608843
 H         3.120010         3.327309        -3.939269
 H         3.262041         2.056167        -0.524295
 H         2.065575         3.450786        -0.187794
 H         0.012874         2.144112        -0.540089
 H         1.381143        -0.401939        -1.227937
 H        -0.218560         0.179821        -1.709293
 H         1.498661         0.847049        -3.663971
 H         0.572138         2.173078         1.723871
