19
Iteration:   641charge 0 multiplicity 1
 C         3.168623         2.680913        -3.520924
 C         2.229060         2.329340        -2.432574
 C         2.657106         1.873442        -1.091121
 C         1.310301         1.726484        -0.331019
 C         0.367032         1.060414        -1.399195
 C         0.770935         1.937153        -2.599083
 O         1.037633         3.318754        -2.314858
 C         1.322553         0.684523         0.820723
 O         1.019656         0.929031         1.963053
 H         3.723678         3.558980        -3.255258
 H         3.833620         1.906283        -3.589749
 H         2.686384         3.000723        -4.463861
 H         3.325175         1.035690        -1.035186
 H         3.131358         2.578417        -0.481308
 H         0.962244         2.695516        -0.033965
 H         0.916622         0.203759        -1.654605
 H        -0.623056         0.838348        -1.054355
 H         0.297852         1.807783        -3.608651
 H         1.489201        -0.459267         0.501608
