19
Iteration:   804charge 0 multiplicity 1
 C         3.440715         2.222735        -3.127896
 C         2.160506         2.315204        -2.313159
 C         2.065635         2.638931        -0.845508
 C         0.940623         1.781291        -0.164833
 C        -0.009366         1.507708        -1.342604
 C         0.823686         1.847731        -2.613127
 O         1.164900         3.220275        -2.814269
 C         1.471616         0.514207         0.573663
 O         1.730644         0.515699         1.792560
 H         4.066376         3.086720        -3.009866
 H         3.897787         1.333582        -2.766500
 H         3.299639         2.253524        -4.160477
 H         3.108048         2.416917        -0.439739
 H         1.847224         3.662679        -0.681158
 H         0.490185         2.411411         0.582595
 H        -0.451734         0.489296        -1.314511
 H        -0.765415         2.306494        -1.323954
 H         0.481842         1.396201        -3.542291
 H         1.571299        -0.447939         0.037869
