19
Iteration:  2360
 C         3.390436         2.745495        -3.161356
 C         2.138990         2.549027        -2.325722
 C         2.109799         2.735703        -0.713129
 C         0.914892         1.794229        -0.149775
 C         0.186049         1.208741        -1.423121
 C         1.021289         1.559562        -2.597494
 O         0.941115         2.916036        -2.957399
 C         1.626987         0.783994         0.722771
 O         1.439528         0.350555         1.789065
 H         3.860807         3.784163        -3.256934
 H         4.262392         2.207918        -2.681634
 H         3.251100         2.255177        -4.221038
 H         3.045043         2.289057        -0.400752
 H         2.027703         3.718748        -0.397019
 H         0.234627         2.368440         0.469651
 H         0.215506         0.106444        -1.381509
 H        -0.858289         1.635787        -1.550515
 H         1.122639         0.784604        -3.315520
 H         2.658160         0.667974         0.232579
