19
Iteration:  3266charge 0 multiplicity 1
 C         2.916666         3.206747        -3.464903
 C         2.126168         2.548454        -2.385416
 C         2.609564         2.435821        -0.943890
 C         1.432082         1.726348        -0.241638
 C         0.990815         0.669444        -1.352260
 C         1.065262         1.494141        -2.613320
 O         0.754454         2.914843        -2.473969
 C         1.565946         0.858077         1.017001
 O         0.514736         0.714181         1.644095
 H         3.498595         4.134949        -3.110981
 H         3.860976         2.631462        -3.685250
 H         2.492384         3.468298        -4.431347
 H         3.542572         1.819764        -0.863050
 H         2.894014         3.411334        -0.609361
 H         0.571040         2.448149        -0.075078
 H         1.553462        -0.303043        -1.422134
 H        -0.047427         0.210118        -1.286202
 H         0.826912         1.034230        -3.586547
 H         2.563517         0.425902         1.205725
