19
Iteration:  2862charge 0 multiplicity 1
 C         3.507697         2.715720        -2.715062
 C         2.057550         2.450379        -2.199728
 C         1.829375         2.769101        -0.727450
 C         0.806569         1.718036        -0.258404
 C         0.143196         1.045481        -1.469867
 C         1.104198         1.454215        -2.626420
 O         0.908450         2.873746        -3.022793
 C         1.723524         0.794459         0.478695
 O         1.724364         0.716183         1.678280
 H         3.723907         3.763564        -2.392214
 H         4.256429         1.924064        -2.401610
 H         3.402069         2.886998        -3.741908
 H         2.799088         2.764531        -0.365481
 H         1.309873         3.777402        -0.549534
 H         0.080463         2.156786         0.535997
 H        -0.171297         0.011950        -1.284337
 H        -0.900780         1.499918        -1.562548
 H         1.390855         0.728976        -3.414601
 H         2.504118         0.287937        -0.074131
