19
Iteration:  4035
 C         3.276285         3.355691        -2.867712
 C         2.090281         2.652690        -2.200759
 C         1.743753         2.842924        -0.749264
 C         0.818302         1.750563        -0.350860
 C         0.701275         0.738992        -1.365705
 C         1.404534         1.272217        -2.563921
 O         0.854107         2.628456        -3.068237
 C         1.423057         1.275727         1.025550
 O         1.541168         0.104514         1.355796
 H         2.881472         4.265774        -3.374344
 H         4.137740         3.426937        -2.125816
 H         3.658869         2.709879        -3.839512
 H         2.707988         2.822481        -0.284529
 H         1.276534         3.765643        -0.588535
 H        -0.154543         2.134933        -0.018258
 H         1.236133        -0.253103        -1.066360
 H        -0.360359         0.510467        -1.788514
 H         1.724337         0.621711        -3.355132
 H         1.656482         2.182305         1.721510
