19
Iteration:    20charge 0 multiplicity 1
 C         3.178422         2.738147        -3.420437
 C         2.203170         2.433339        -2.326338
 C         2.552419         2.287222        -0.837679
 C         1.272655         1.687681        -0.242630
 C         0.479445         1.073958        -1.449401
 C         1.038092         1.732266        -2.709709
 O         0.980222         3.274249        -2.570498
 C         1.489953         0.659705         0.864909
 O         0.768469         0.626836         1.835102
 H         3.860190         3.647600        -3.143322
 H         3.903930         1.919064        -3.568018
 H         2.639505         3.051158        -4.256042
 H         3.378819         1.665086        -0.721426
 H         2.710991         3.286008        -0.438490
 H         0.625760         2.447123         0.205864
 H         0.330720         0.064271        -1.520571
 H        -0.533712         1.500330        -1.294272
 H         0.731026         1.300636        -3.776097
 H         2.364373        -0.025477         0.779271
