19
Iteration:  1427
 C         3.428615         2.575352        -3.102457
 C         2.157564         2.455709        -2.295670
 C         2.287091         2.460402        -0.761824
 C         0.982815         1.687359        -0.294795
 C         0.220053         1.108844        -1.506055
 C         0.890970         1.712615        -2.742556
 O         0.882743         3.263351        -2.742791
 C         1.392708         0.611027         0.717422
 O         1.629813         0.741172         1.835034
 H         3.690546         3.596879        -3.253512
 H         4.185404         1.955950        -2.539803
 H         3.248157         1.923048        -4.041249
 H         3.193293         2.037591        -0.353567
 H         2.140335         3.446096        -0.334147
 H         0.391383         2.401056         0.347524
 H         0.246182        -0.046651        -1.550593
 H        -0.888260         1.311115        -1.538508
 H         0.622483         1.057811        -3.565105
 H         1.237366        -0.456979         0.218969
