19
Iteration:  2637charge 0 multiplicity 1
 C         3.167437         3.068885        -3.320337
 C         2.076615         2.573371        -2.375209
 C         2.471726         2.269664        -0.898814
 C         1.200483         1.667484        -0.342591
 C         0.743212         0.717729        -1.444176
 C         1.055183         1.551024        -2.738146
 O         0.751879         3.032585        -2.559065
 C         1.524379         0.907655         0.848494
 O         0.906989         0.796919         1.906612
 H         3.557006         4.032006        -2.810174
 H         4.052227         2.393532        -3.184658
 H         2.827456         3.147162        -4.366867
 H         3.371057         1.527224        -0.716924
 H         2.776015         3.093985        -0.273299
 H         0.484167         2.422508        -0.155417
 H         1.231573        -0.313234        -1.418252
 H        -0.335299         0.616158        -1.307059
 H         0.841645         1.228950        -3.708887
 H         2.335093         0.133854         0.673237
