19
Iteration:  3058
 C         3.395504         2.711239        -2.841429
 C         2.038733         2.581297        -2.228451
 C         1.900130         2.870768        -0.808913
 C         0.968480         1.733506        -0.198180
 C         0.272157         0.980056        -1.466643
 C         1.103703         1.491016        -2.686396
 O         0.877593         2.888101        -3.040386
 C         1.796621         0.800082         0.634378
 O         1.494043         0.556977         1.756233
 H         3.697657         3.778834        -2.693161
 H         4.026082         1.993374        -2.282966
 H         3.325429         2.402602        -3.803157
 H         2.869474         2.937545        -0.164760
 H         1.509775         3.837139        -0.591146
 H         0.058830         2.141095         0.368404
 H         0.288406        -0.100308        -1.356277
 H        -0.815011         1.222981        -1.476123
 H         1.228777         0.864004        -3.500487
 H         2.737889         0.395770         0.213486
