19
Iteration:  3047
 C         3.413188         2.674786        -2.834429
 C         2.009230         2.630723        -2.304693
 C         1.851636         2.874772        -0.713181
 C         0.988459         1.757458        -0.232506
 C         0.325216         1.056136        -1.467261
 C         1.074218         1.512589        -2.615627
 O         0.829895         2.814209        -3.062709
 C         1.791987         0.767874         0.579544
 O         1.497668         0.560448         1.769516
 H         3.923465         3.675750        -2.655356
 H         4.036615         2.046909        -2.162519
 H         3.673446         2.525802        -3.783626
 H         2.942572         2.903556        -0.295503
 H         1.319493         3.778684        -0.613174
 H         0.350703         2.165261         0.642573
 H         0.481983        -0.016438        -1.501100
 H        -0.759380         1.285635        -1.569259
 H         1.420095         0.829852        -3.296435
 H         2.492842         0.128282         0.002563
