19
Iteration:   298
 C         3.354548         2.045828        -3.242877
 C         2.104594         2.317681        -2.350990
 C         2.383505         2.317972        -0.738906
 C         1.077348         1.944003        -0.068398
 C        -0.112417         1.805212        -1.326479
 C         0.656954         2.035464        -2.625554
 O         1.265404         3.335263        -2.741511
 C         1.172298         0.458462         0.633950
 O         1.846597         0.388834         1.634068
 H         3.965698         2.939321        -3.234441
 H         3.984397         1.257751        -2.756555
 H         3.086207         1.949684        -4.300896
 H         3.079544         1.641516        -0.398709
 H         2.568125         3.334994        -0.443092
 H         0.734922         2.739856         0.620482
 H        -0.360055         0.721175        -1.418764
 H        -1.101794         2.215142        -1.071437
 H         0.259965         1.550150        -3.563150
 H         0.949841        -0.405825        -0.051542
