19
Iteration:  1744
 C         3.353287         2.711490        -3.321232
 C         2.127727         2.470704        -2.313855
 C         2.307009         2.700563        -0.794282
 C         1.098893         1.910307        -0.123693
 C         0.366839         1.114657        -1.308316
 C         1.023142         1.546419        -2.591336
 O         0.874644         3.039646        -2.833977
 C         1.557226         0.745919         0.687711
 O         1.159758         0.374809         1.799949
 H         3.852965         3.606819        -3.049792
 H         4.182097         1.963127        -3.436525
 H         2.890225         3.109904        -4.271542
 H         3.251405         2.203680        -0.663489
 H         2.350776         3.811530        -0.629682
 H         0.300877         2.404194         0.511531
 H         0.365358         0.064836        -1.250662
 H        -0.674033         1.352667        -1.237829
 H         1.065024         0.858902        -3.493453
 H         2.420230         0.201036         0.283132
