19
Iteration:  3712charge 0 multiplicity 1
 C         3.359442         3.022270        -2.760664
 C         2.052340         2.601833        -2.069839
 C         1.778021         2.818270        -0.655231
 C         0.674482         1.738480        -0.336887
 C         0.695885         0.679205        -1.473834
 C         1.314719         1.408558        -2.629884
 O         0.831460         2.723171        -2.947727
 C         0.949807         0.903488         0.910975
 O         2.102558         0.730945         1.168466
 H         3.769007         4.107451        -2.666651
 H         4.198121         2.289507        -2.379207
 H         3.347539         2.715109        -3.769798
 H         2.625058         2.509816        -0.063940
 H         1.379368         3.793960        -0.419103
 H        -0.325207         2.298525        -0.212123
 H         1.297288        -0.249029        -1.254220
 H        -0.281793         0.239848        -1.642414
 H         1.722113         0.858525        -3.423212
 H         0.021919         0.716528         1.488971
