19
Iteration:  3043charge 0 multiplicity 1
 C         3.443418         2.695646        -2.807436
 C         2.014678         2.608566        -2.307650
 C         1.829213         2.900376        -0.717801
 C         0.983064         1.752576        -0.223642
 C         0.327180         1.078003        -1.435503
 C         1.085912         1.509689        -2.591114
 O         0.793895         2.818987        -3.091083
 C         1.757174         0.730870         0.582724
 O         1.518347         0.561325         1.755922
 H         3.937978         3.626870        -2.673397
 H         4.033518         1.977221        -2.229731
 H         3.725613         2.424487        -3.919835
 H         2.913144         2.892844        -0.341802
 H         1.284763         3.855575        -0.569146
 H         0.397931         2.113601         0.535725
 H         0.692269        -0.001100        -1.385921
 H        -0.653458         1.477583        -1.596206
 H         1.527565         0.770270        -3.402245
 H         2.424134         0.079644        -0.028498
