19
Iteration:  3822
 C         3.211833         3.235107        -2.975240
 C         2.077803         2.621381        -2.216995
 C         2.081663         2.623899        -0.704787
 C         0.883368         1.631731        -0.385915
 C         0.984357         0.586987        -1.490141
 C         1.348743         1.444292        -2.722635
 O         0.708533         2.772086        -2.767106
 C         0.824830         1.191266         1.002486
 O         1.731999         0.476363         1.448648
 H         2.916147         4.219438        -3.432224
 H         4.149164         3.045516        -2.376260
 H         3.316807         2.734771        -4.012821
 H         3.052510         2.274278        -0.330370
 H         1.771421         3.612023        -0.265325
 H        -0.114820         2.258590        -0.507001
 H         1.863845        -0.087405        -1.337797
 H         0.074422         0.032051        -1.750134
 H         1.441597         0.995813        -3.730664
 H         0.110113         1.522738         1.780665
