19
Iteration:  1644
 C         3.383030         2.384056        -3.081145
 C         2.110029         2.549849        -2.264258
 C         1.960444         2.824778        -0.756494
 C         0.984679         1.916868        -0.078704
 C         0.286952         1.264110        -1.331757
 C         0.988211         1.663617        -2.615750
 O         0.970010         3.066737        -2.962091
 C         1.635267         0.809855         0.561481
 O         1.471173         0.239526         1.717776
 H         3.726035         3.276156        -3.432517
 H         4.287487         2.033429        -2.586912
 H         3.092860         1.616964        -3.840485
 H         2.962493         2.697738        -0.376712
 H         1.746692         3.946665        -0.727274
 H         0.281592         2.396561         0.652893
 H         0.489520         0.258900        -1.225966
 H        -0.752476         1.351942        -1.312129
 H         1.010080         0.877778        -3.361853
 H         2.489038         0.298904        -0.053242
