19
Iteration:  3308
 C         2.912463         3.310749        -3.486409
 C         2.179077         2.560362        -2.417033
 C         2.692904         2.369890        -0.852003
 C         1.442497         1.717771        -0.322302
 C         0.827991         0.701177        -1.459619
 C         1.204919         1.454917        -2.656528
 O         0.707983         2.851322        -2.508443
 C         1.505749         0.916159         1.043504
 O         0.558071         0.703288         1.779854
 H         3.304962         4.366625        -3.292764
 H         3.857263         2.667795        -3.656510
 H         2.136346         3.316699        -4.200933
 H         3.462036         1.656829        -0.926012
 H         2.860780         3.260168        -0.345951
 H         0.709997         2.400372        -0.098601
 H         1.394433        -0.287571        -1.431309
 H        -0.228493         0.412946        -1.234652
 H         1.054844         1.098595        -3.659308
 H         2.549470         0.473719         1.351711
