19
Iteration:   127charge 0 multiplicity 1
 C         3.257292         2.486340        -3.497101
 C         2.228713         2.382129        -2.358472
 C         2.624132         2.300961        -0.892411
 C         1.211110         2.036930        -0.210921
 C         0.303881         1.305245        -1.298261
 C         0.851573         1.845610        -2.623096
 O         1.063077         3.226431        -2.517214
 C         1.252907         1.143678         1.101495
 O         1.089748        -0.044212         1.408449
 H         3.619615         3.563930        -3.450904
 H         4.100399         1.770493        -3.448777
 H         2.787214         2.292629        -4.404072
 H         3.243613         1.310494        -0.633319
 H         3.234396         3.028948        -0.304933
 H         0.819897         2.965140         0.265267
 H         0.587196         0.103666        -1.252749
 H        -0.809603         1.403980        -1.080651
 H         0.425401         1.409859        -3.624472
 H         1.362432         1.829139         2.046673
