19
Iteration:  1762charge 0 multiplicity 1
 C         3.244005         2.724205        -3.303626
 C         2.201341         2.513845        -2.345938
 C         2.309818         2.648650        -0.814902
 C         1.163233         1.791264        -0.250694
 C         0.383346         1.077368        -1.387923
 C         1.040270         1.648166        -2.652480
 O         0.854841         3.014600        -2.677784
 C         1.647263         0.753165         0.749493
 O         1.079517         0.476113         1.816669
 H         4.023810         3.510373        -3.073236
 H         3.788201         1.756688        -3.196340
 H         2.863513         2.634725        -4.361530
 H         3.281563         2.459957        -0.354839
 H         2.040083         3.639897        -0.400810
 H         0.518989         2.506507         0.292260
 H         0.621314        -0.083273        -1.394720
 H        -0.695804         1.249476        -1.473153
 H         0.841150         1.191102        -3.558349
 H         2.461305         0.017880         0.410289
