19
Iteration:   587
 C         3.121023         2.743995        -3.584443
 C         2.219724         2.425139        -2.401781
 C         2.747144         1.728102        -1.101726
 C         1.423185         1.518420        -0.364568
 C         0.381694         1.152778        -1.449839
 C         0.858006         1.908044        -2.633764
 O         0.943670         3.305864        -2.298187
 C         1.500616         0.774948         0.973623
 O         0.784120         0.942120         1.954722
 H         3.967409         3.255157        -3.148467
 H         3.430027         1.965075        -4.196180
 H         2.552585         3.521952        -4.204598
 H         2.913524         0.687280        -1.396203
 H         3.517490         2.201665        -0.540687
 H         1.051921         2.490467        -0.049701
 H         0.308478         0.031528        -1.679976
 H        -0.595466         1.430747        -1.055846
 H         0.328808         1.778677        -3.578336
 H         2.424887         0.287189         1.153153
