19
Iteration:  2127
 C         3.482414         2.594271        -2.936120
 C         2.069594         2.563707        -2.293101
 C         2.067754         2.768789        -0.819637
 C         0.963128         1.803465        -0.213238
 C         0.152664         1.161254        -1.347523
 C         0.990818         1.608438        -2.586891
 O         0.868208         2.974244        -2.973399
 C         1.702750         0.731853         0.548753
 O         1.486493         0.445021         1.725014
 H         4.038361         3.516906        -2.619250
 H         4.146365         1.735740        -2.487551
 H         3.286063         2.394354        -3.960099
 H         3.008886         2.740500        -0.274552
 H         1.571060         3.749517        -0.727233
 H         0.398332         2.359896         0.575548
 H         0.261408         0.067620        -1.098780
 H        -0.819326         1.575597        -1.359156
 H         1.278999         0.760288        -3.343040
 H         2.576589         0.221971         0.061275
