19
Iteration:  3997
 C         3.346293         3.146351        -2.923176
 C         1.979944         2.702103        -2.277281
 C         1.645271         3.077849        -0.809693
 C         0.920743         1.810940        -0.276229
 C         0.885614         0.785550        -1.431754
 C         1.427944         1.426636        -2.615684
 O         0.785632         2.621369        -3.093823
 C         1.368962         1.154057         1.139220
 O         1.529107        -0.024986         1.437397
 H         3.325628         4.166463        -3.293368
 H         4.213734         3.019136        -2.298175
 H         3.381313         2.455688        -3.638939
 H         2.503778         3.236389        -0.029723
 H         0.886313         3.947672        -0.890038
 H        -0.125642         2.185349        -0.036675
 H         1.457162        -0.054714        -1.163436
 H        -0.068505         0.337178        -1.447595
 H         1.717836         0.665791        -3.383847
 H         1.353882         1.837974         2.026039
