19
Iteration:  3161charge 0 multiplicity 1
 C         3.286469         3.054382        -3.211336
 C         2.111977         2.556086        -2.383360
 C         2.232930         2.666412        -0.911822
 C         1.117599         1.741171        -0.179420
 C         0.551291         0.922769        -1.354357
 C         1.171783         1.476819        -2.671251
 O         0.767626         2.867900        -2.879264
 C         1.610022         0.818236         0.840970
 O         1.063070         0.489740         1.887541
 H         3.438593         4.100486        -2.976736
 H         4.136886         2.523755        -2.771360
 H         3.135678         2.886565        -4.380860
 H         3.200993         2.436358        -0.572128
 H         1.963060         3.770048        -0.613686
 H         0.366589         2.341255         0.383098
 H         0.907679        -0.096365        -1.202608
 H        -0.539402         1.104799        -1.498656
 H         1.115650         0.743065        -3.553018
 H         2.558113         0.241766         0.534151
