19
Iteration:  1945
 C         3.213480         2.959919        -3.316728
 C         2.119804         2.486658        -2.283748
 C         2.470947         2.164485        -0.888884
 C         1.239387         1.461822        -0.372353
 C         0.623707         0.719728        -1.645648
 C         0.970602         1.711444        -2.706891
 O         0.753756         3.203718        -2.398198
 C         1.519080         0.712361         0.856168
 O         0.996721         1.031384         1.895867
 H         3.690531         3.910953        -2.886753
 H         3.992162         2.248135        -3.533349
 H         2.697517         3.072559        -4.303967
 H         3.400261         1.681974        -0.922396
 H         2.739263         3.027459        -0.354452
 H         0.710572         2.326793        -0.119503
 H         1.040232        -0.248916        -1.756813
 H        -0.543059         0.825143        -1.565955
 H         0.718611         1.605220        -3.874479
 H         2.218133        -0.177880         0.706759
