19
Iteration:  3680
 C         3.439916         2.930852        -2.630094
 C         2.057008         2.535526        -2.164412
 C         1.651916         2.817780        -0.769450
 C         0.634036         1.692128        -0.305155
 C         0.606567         0.645228        -1.610610
 C         1.242738         1.461992        -2.748653
 O         0.822011         2.862569        -2.961996
 C         1.066030         0.851518         0.927413
 O         2.217449         0.788552         1.377939
 H         3.773973         4.029845        -2.783127
 H         4.144352         2.426386        -1.853337
 H         3.561802         2.489771        -3.571124
 H         2.589429         2.576013        -0.064776
 H         1.246488         3.839269        -0.653057
 H        -0.363127         2.153935        -0.039217
 H         1.329470        -0.198412        -1.305015
 H        -0.425681         0.354397        -1.845570
 H         1.539804         0.875185        -3.536853
 H         0.190360         0.431790         1.615034
