19
Iteration:  1844charge 0 multiplicity 1
 C         3.195592         3.124961        -3.375623
 C         2.173034         2.528227        -2.407797
 C         2.619758         2.133500        -0.965135
 C         1.233572         1.599573        -0.321186
 C         0.526923         0.855438        -1.504086
 C         0.949167         1.639192        -2.671024
 O         0.844360         3.054289        -2.457672
 C         1.394555         0.714897         0.886858
 O         0.970412         0.885748         1.958026
 H         3.440981         4.216852        -3.169264
 H         4.148520         2.485929        -3.451102
 H         2.700148         3.042789        -4.360808
 H         3.469901         1.418319        -1.060387
 H         2.941943         2.934386        -0.282629
 H         0.644016         2.493757        -0.006670
 H         0.821027        -0.204986        -1.657166
 H        -0.614128         0.956392        -1.519064
 H         0.715878         1.195584        -3.767587
 H         2.142858        -0.104541         0.620054
