19
Iteration:  1601
 C         3.466811         2.460070        -2.888984
 C         2.098262         2.445741        -2.279234
 C         2.036523         2.759511        -0.809756
 C         0.954127         1.874705        -0.138433
 C         0.168314         1.295601        -1.338449
 C         0.939777         1.587523        -2.608209
 O         0.913733         3.008470        -2.891560
 C         1.725862         0.715478         0.480283
 O         1.529046         0.438100         1.631705
 H         3.897208         3.406270        -2.892158
 H         4.204676         1.820782        -2.379499
 H         3.248480         2.112945        -3.947800
 H         2.989047         2.577529        -0.276876
 H         1.695691         3.827115        -0.522997
 H         0.361729         2.489014         0.588417
 H        -0.077309         0.260773        -1.267693
 H        -0.771566         1.809016        -1.434427
 H         0.716385         1.165069        -3.566456
 H         2.554336         0.330394        -0.125530
