19
Iteration:  1458
 C         3.412448         2.510272        -2.989662
 C         2.102928         2.480370        -2.293297
 C         2.115360         2.419694        -0.694006
 C         0.814260         1.591188        -0.218343
 C         0.063690         1.219958        -1.573482
 C         0.920125         1.702004        -2.745971
 O         0.994173         3.288046        -2.842423
 C         1.581779         0.549075         0.614618
 O         1.756706         0.806217         1.865350
 H         3.823424         3.421722        -3.228578
 H         4.160145         2.034686        -2.334737
 H         3.208756         1.792717        -3.805744
 H         3.040945         1.934709        -0.378759
 H         2.162836         3.517268        -0.312244
 H         0.182588         2.289761         0.362208
 H         0.080696         0.122387        -1.708621
 H        -0.967282         1.543160        -1.586451
 H         0.775397         1.142667        -3.704349
 H         1.977815        -0.344324         0.165237
