19
Iteration:  1010
 C         3.353607         2.222369        -3.112387
 C         2.184731         2.434472        -2.209004
 C         2.249580         2.799956        -0.820941
 C         1.031042         2.021067        -0.038182
 C         0.134022         1.550556        -1.162471
 C         0.962365         1.666115        -2.439228
 O         0.953335         3.038517        -2.960226
 C         1.713833         0.752728         0.496878
 O         1.312062         0.198870         1.501126
 H         3.960418         3.060207        -3.341837
 H         3.899625         1.434786        -2.469495
 H         3.080237         1.780671        -3.950003
 H         3.189942         2.572531        -0.388132
 H         1.915328         3.825327        -0.792344
 H         0.461993         2.600436         0.664511
 H        -0.363219         0.606587        -0.912094
 H        -0.720926         2.211890        -1.298228
 H         1.021645         0.971802        -3.276847
 H         2.335332         0.377414        -0.442267
