19
Iteration:  1734charge 0 multiplicity 1
 C         3.321092         2.786008        -3.254176
 C         2.141859         2.471465        -2.405724
 C         2.262130         2.655557        -0.854663
 C         1.050946         1.942308        -0.069353
 C         0.324810         1.187020        -1.239258
 C         1.067556         1.522317        -2.528870
 O         0.912150         3.012120        -2.928217
 C         1.576821         0.749014         0.708828
 O         1.197197         0.326758         1.766616
 H         3.852839         3.546055        -2.787025
 H         3.978163         1.892999        -3.334411
 H         3.004902         2.881449        -4.275792
 H         3.231271         2.176058        -0.541924
 H         2.413978         3.662562        -0.429319
 H         0.464759         2.630796         0.582200
 H         0.490438         0.168855        -1.128638
 H        -0.713590         1.384923        -1.459352
 H         0.796452         0.859635        -3.411902
 H         2.355529         0.218980         0.121655
