19
Iteration:  1637charge 0 multiplicity 1
 C         3.391434         2.362378        -3.013263
 C         2.096801         2.601476        -2.248382
 C         2.026491         2.848651        -0.749412
 C         0.965662         1.954432        -0.118291
 C         0.280292         1.205767        -1.331507
 C         0.984510         1.651896        -2.607218
 O         0.960927         3.046425        -2.983641
 C         1.585149         0.770906         0.615285
 O         1.518808         0.260318         1.662882
 H         3.678705         3.360406        -3.541718
 H         4.272321         1.905525        -2.505487
 H         3.129883         1.678358        -3.827923
 H         3.081764         2.670250        -0.331829
 H         1.873667         3.938921        -0.683076
 H         0.223153         2.359839         0.584332
 H         0.426954         0.045923        -1.285197
 H        -0.851306         1.463034        -1.254449
 H         0.666278         1.050916        -3.526047
 H         2.437703         0.484293        -0.035886
