19
Iteration:  4810charge 0 multiplicity 1
 C         3.443466         2.994532        -2.448658
 C         1.982191         2.551231        -2.071795
 C         1.359806         3.085475        -0.830660
 C         0.547855         1.847548        -0.147684
 C         0.309946         0.865145        -1.342458
 C         1.338104         1.227333        -2.480668
 O         1.088905         2.509550        -3.198044
 C         1.505387         1.272832         0.937112
 O         2.155840         0.255429         0.806284
 H         3.560279         4.099060        -2.356303
 H         4.142267         2.577667        -1.678751
 H         3.632964         2.646924        -3.552299
 H         2.248004         3.554745        -0.155445
 H         0.741308         3.924692        -0.975918
 H        -0.392004         2.306479         0.286599
 H         0.444232        -0.172946        -1.151098
 H        -0.722280         1.080963        -1.540422
 H         1.698007         0.289713        -2.913299
 H         1.495296         1.904351         1.903927
