19
Iteration:  2218charge 0 multiplicity 1
 C         3.442045         2.528356        -2.880469
 C         2.064763         2.462988        -2.278349
 C         2.087633         2.967024        -0.769037
 C         0.957046         1.890520        -0.143871
 C         0.193317         1.152745        -1.355139
 C         1.030328         1.473260        -2.532029
 O         0.855448         3.005686        -2.986618
 C         1.691912         0.734012         0.444913
 O         1.528411         0.407320         1.684153
 H         3.629836         3.591420        -2.946727
 H         4.230307         2.287914        -2.233178
 H         3.392458         1.990588        -3.879243
 H         3.058421         2.862726        -0.157715
 H         1.748746         3.954076        -0.777350
 H         0.311976         2.268718         0.588552
 H         0.032842         0.069543        -1.294223
 H        -0.760347         1.692760        -1.637480
 H         1.158439         0.832358        -3.337360
 H         2.029333        -0.055844        -0.293782
