19
Iteration:  3419charge 0 multiplicity 1
 C         3.268920         3.084865        -3.134921
 C         2.070420         2.522932        -2.344502
 C         2.101308         2.684261        -0.772470
 C         0.978402         1.690653        -0.231932
 C         0.600517         0.823429        -1.524475
 C         1.243428         1.478396        -2.771718
 O         0.808674         2.845219        -2.927104
 C         1.500887         0.687287         0.822607
 O         1.297942         0.744265         2.027469
 H         3.439184         4.207871        -2.939473
 H         4.317000         2.625536        -3.119934
 H         2.874780         3.087076        -4.254095
 H         3.182172         2.502108        -0.311604
 H         1.843214         3.660801        -0.377634
 H         0.121140         2.172928         0.245809
 H         1.073007        -0.163265        -1.345568
 H        -0.535866         0.850608        -1.658672
 H         1.397242         0.891430        -3.725692
 H         1.983777        -0.317019         0.408047
