19
Iteration:  2120
 C         3.443440         2.571192        -2.911461
 C         2.074903         2.562588        -2.278085
 C         2.012468         2.743646        -0.816088
 C         1.007754         1.805078        -0.173435
 C         0.246726         1.194400        -1.388900
 C         1.023816         1.591013        -2.541962
 O         0.849512         2.995798        -2.996967
 C         1.673166         0.796583         0.563941
 O         1.491503         0.417620         1.740886
 H         4.081851         3.465851        -2.827318
 H         3.952864         1.786703        -2.452836
 H         3.266958         2.371020        -4.000161
 H         3.156852         2.683230        -0.514736
 H         1.748311         3.786707        -0.651580
 H         0.305864         2.324605         0.408792
 H         0.329305         0.073366        -1.317375
 H        -0.892546         1.316483        -1.481690
 H         1.090096         0.856579        -3.333930
 H         2.291070         0.160708        -0.152527
