19
Iteration:  3450
 C         3.398803         3.088353        -2.904968
 C         2.062683         2.560245        -2.348293
 C         2.044180         2.699737        -0.808460
 C         0.927775         1.631705        -0.306043
 C         0.439609         0.846231        -1.514652
 C         1.203304         1.412914        -2.690817
 O         0.774515         2.798139        -2.995313
 C         1.529538         0.710516         0.733784
 O         1.508440         0.832932         1.951954
 H         3.458493         4.155277        -2.546667
 H         4.368806         2.536530        -2.643582
 H         3.128267         3.244463        -3.958158
 H         2.985806         2.183426        -0.300179
 H         1.548924         3.621089        -0.363896
 H         0.110251         2.117309         0.109865
 H         0.524608        -0.250740        -1.506183
 H        -0.634133         0.994892        -1.836295
 H         1.438833         0.792998        -3.632805
 H         1.849335        -0.273713         0.474815
