19
Iteration:  4541
 C         2.949392         3.622386        -3.069001
 C         2.154798         2.713060        -2.254622
 C         2.310459         2.555242        -0.744112
 C         1.069613         1.680502        -0.414132
 C         1.015111         0.566888        -1.475145
 C         1.482793         1.333110        -2.661088
 O         0.720482         2.556825        -2.782791
 C         0.964431         1.309329         1.050336
 O         1.271350         0.260546         1.546101
 H         3.096338         4.595026        -2.531134
 H         3.883231         3.023368        -3.322761
 H         2.644978         3.867521        -3.983611
 H         3.196034         1.886895        -0.756864
 H         2.287128         3.539712        -0.267189
 H         0.120386         2.319726        -0.544644
 H         1.658384        -0.229070        -1.188040
 H         0.007417         0.198114        -1.763336
 H         1.751047         0.712711        -3.602430
 H         0.695440         2.223619         1.588322
