19
Iteration:  4934
 C         3.482492         2.808074        -2.251998
 C         1.975646         2.518391        -2.052949
 C         1.184740         3.080080        -0.742608
 C         0.545443         1.836471        -0.199026
 C         0.233118         0.927068        -1.424632
 C         1.263984         1.258054        -2.478145
 O         1.081141         2.519687        -3.173691
 C         1.632932         1.356318         0.844998
 O         2.283375         0.333480         0.736446
 H         3.583350         3.828209        -2.678846
 H         4.177007         2.545131        -1.372985
 H         3.696858         2.095861        -3.044778
 H         1.929048         3.639010        -0.092943
 H         0.582962         3.895172        -1.117512
 H        -0.275003         2.034385         0.513801
 H         0.352726        -0.103550        -1.331877
 H        -0.722977         1.034180        -1.909166
 H         1.911468         0.452396        -2.960658
 H         1.718129         2.101692         1.625304
