19
Iteration:  4431charge 0 multiplicity 1
 C         3.302047         3.313284        -3.108064
 C         1.986569         2.787719        -2.329091
 C         1.867735         2.972133        -0.819210
 C         0.985030         1.780212        -0.183360
 C         1.049658         0.617433        -1.356003
 C         1.434738         1.424123        -2.624348
 O         0.701110         2.630129        -2.958729
 C         1.517169         1.113216         1.117919
 O         1.041698         0.026143         1.466327
 H         2.907590         4.433279        -3.388134
 H         4.274917         3.411185        -2.399861
 H         3.403920         2.810854        -4.050959
 H         2.861433         3.069510        -0.397464
 H         1.487732         3.957501        -0.716825
 H        -0.050341         2.146841        -0.142358
 H         1.832363        -0.045539        -1.163497
 H         0.100768         0.070473        -1.450633
 H         1.661574         0.671395        -3.404948
 H         2.473583         1.457172         1.636996
