19
Iteration:  2923
 C         3.486375         2.639619        -2.727724
 C         2.117082         2.562397        -2.235840
 C         1.666885         2.960648        -0.786537
 C         0.812321         1.799226        -0.197416
 C         0.190808         1.035584        -1.430276
 C         0.985450         1.535269        -2.620046
 O         0.980582         2.875168        -3.144458
 C         1.681399         0.644830         0.563652
 O         1.817681         0.585133         1.767053
 H         3.888986         3.639235        -2.841678
 H         4.234082         2.206239        -2.072946
 H         3.703184         2.099027        -3.749260
 H         2.645295         3.198016        -0.084404
 H         1.095834         3.907331        -0.712495
 H        -0.028503         2.110901         0.415096
 H         0.589239         0.006481        -1.321163
 H        -0.853947         1.181434        -1.625153
 H         1.132339         0.773370        -3.536698
 H         2.124002        -0.005140        -0.201069
