19
Iteration:  1295charge 0 multiplicity 1
 C         3.225379         2.887847        -3.258074
 C         2.167845         2.479304        -2.258788
 C         2.534290         1.769685        -0.983240
 C         1.013960         1.379672        -0.478519
 C         0.365775         0.828967        -1.769986
 C         0.867861         1.853861        -2.708032
 O         0.979692         3.241436        -2.198427
 C         1.397779         0.699349         0.890926
 O         1.269014         1.325645         1.869500
 H         3.718325         3.744098        -2.796468
 H         4.141726         2.140491        -3.387413
 H         2.680041         3.233794        -4.192538
 H         3.161209         0.954132        -1.285258
 H         3.121033         2.394914        -0.259031
 H         0.460502         2.346011        -0.360399
 H         0.874012        -0.138433        -2.016527
 H        -0.719360         0.726339        -1.658318
 H         0.442370         1.784667        -3.720874
 H         1.836216        -0.398087         0.787529
