19
Iteration:  2514charge 0 multiplicity 1
 C         3.176274         3.030221        -3.408569
 C         2.127822         2.478121        -2.377940
 C         2.513833         2.424677        -0.915297
 C         1.358416         1.689210        -0.276501
 C         0.764097         0.833119        -1.392996
 C         1.000060         1.587346        -2.676605
 O         0.705487         2.997120        -2.492141
 C         1.614329         0.800335         0.937324
 O         0.739351         0.743827         1.733675
 H         3.650481         3.943814        -2.873407
 H         3.882636         2.175518        -3.643339
 H         2.672706         3.386956        -4.355873
 H         3.420466         1.757379        -0.805042
 H         2.914980         3.272863        -0.405192
 H         0.435727         2.328070        -0.057593
 H         1.100025        -0.200021        -1.503429
 H        -0.364714         0.648369        -1.181207
 H         0.571345         1.240886        -3.654901
 H         2.491595         0.094713         0.985552
