19
Iteration:  2924charge 0 multiplicity 1
 C         3.492809         2.637060        -2.724786
 C         2.113359         2.567123        -2.236803
 C         1.674856         2.960344        -0.781157
 C         0.821470         1.797924        -0.207198
 C         0.191143         1.041851        -1.425693
 C         0.978765         1.525769        -2.618746
 O         0.976346         2.873484        -3.142924
 C         1.674509         0.648333         0.559990
 O         1.818520         0.585076         1.765622
 H         3.890512         3.665219        -2.862435
 H         4.248222         2.216523        -2.041441
 H         3.700537         2.119169        -3.745953
 H         2.629604         3.187519        -0.069076
 H         1.095712         3.859672        -0.720592
 H        -0.061413         2.129387         0.409938
 H         0.585831         0.011185        -1.311304
 H        -0.875092         1.169366        -1.630326
 H         1.150824         0.772507        -3.547052
 H         2.141167         0.004084        -0.210707
