19
Iteration:  1738
 C         3.331682         2.759352        -3.286583
 C         2.121164         2.449678        -2.380457
 C         2.274756         2.678455        -0.833728
 C         1.059437         1.938365        -0.070106
 C         0.340849         1.167905        -1.247724
 C         1.076311         1.527278        -2.549624
 O         0.898993         3.033352        -2.899707
 C         1.564255         0.768009         0.662369
 O         1.181282         0.333491         1.797389
 H         3.931695         3.602412        -2.781356
 H         4.065470         1.969383        -3.404168
 H         2.938512         2.912810        -4.289649
 H         3.305825         2.193709        -0.638584
 H         2.418537         3.682971        -0.460358
 H         0.411660         2.491269         0.578009
 H         0.490322         0.007916        -1.225432
 H        -0.763908         1.391049        -1.455264
 H         0.837902         0.858048        -3.405580
 H         2.423267         0.162541         0.223221
