19
Iteration:  4043
 C         3.261726         3.372391        -2.878570
 C         2.066832         2.595662        -2.241617
 C         1.804232         2.866398        -0.722239
 C         0.799558         1.767567        -0.323026
 C         0.669792         0.714556        -1.410936
 C         1.444727         1.334950        -2.576213
 O         0.872783         2.533946        -2.976586
 C         1.380143         1.283300         0.973088
 O         1.556323         0.151796         1.328262
 H         2.886335         4.338900        -3.090987
 H         3.937878         3.452073        -2.133280
 H         3.666662         2.815348        -3.714577
 H         2.833777         2.663278        -0.267038
 H         1.355572         3.826630        -0.489289
 H        -0.255974         2.168977        -0.258468
 H         0.966956        -0.231965        -0.996554
 H        -0.404394         0.545247        -1.672645
 H         1.772583         0.765184        -3.435195
 H         1.831463         2.044607         1.593946
