19
Iteration:  2071
 C         3.376140         2.602768        -3.156962
 C         2.184071         2.495467        -2.316849
 C         1.960475         2.713273        -0.786131
 C         0.943706         1.758935        -0.196552
 C         0.346207         1.077396        -1.416726
 C         1.017714         1.642215        -2.628718
 O         0.943875         3.064887        -2.847865
 C         1.701190         0.717688         0.658908
 O         1.386081         0.504648         1.835080
 H         3.566843         3.693590        -3.122854
 H         4.298108         2.105276        -2.683274
 H         3.196427         2.472091        -4.224899
 H         2.903262         2.434773        -0.282159
 H         1.846767         3.821766        -0.614896
 H         0.183463         2.200887         0.542563
 H         0.148811        -0.001404        -1.249395
 H        -0.641516         1.423855        -1.540648
 H         0.911547         1.079859        -3.578676
 H         2.529654         0.176010         0.108530
