19
Iteration:   509charge 0 multiplicity 1
 C         3.012883         2.441476        -3.654989
 C         2.191051         2.463916        -2.378655
 C         2.722344         2.125302        -1.025774
 C         1.471392         1.730907        -0.214198
 C         0.398688         1.302614        -1.227659
 C         0.838228         1.939605        -2.522117
 O         1.075579         3.343822        -2.452341
 C         1.574193         0.731373         0.922756
 O         0.668159         0.558139         1.716374
 H         3.634566         3.379233        -3.805215
 H         3.688121         1.628150        -3.634325
 H         2.335559         2.288643        -4.551821
 H         3.426235         1.156319        -1.162307
 H         3.373645         2.861776        -0.532122
 H         1.047012         2.644588         0.241177
 H         0.160881         0.134642        -1.045070
 H        -0.604904         1.778103        -0.947045
 H         0.494859         1.432041        -3.557223
 H         2.598340         0.074198         1.023859
