19
Iteration:  1415
 C         3.355888         2.612643        -3.195231
 C         2.151289         2.445710        -2.334030
 C         2.316608         2.467925        -0.832821
 C         0.949417         1.745745        -0.251688
 C         0.275026         1.093854        -1.472089
 C         0.921074         1.757733        -2.708316
 O         0.952887         3.138192        -2.680128
 C         1.246630         0.587830         0.695881
 O         1.613405         0.715884         1.898416
 H         3.674146         3.608385        -3.191565
 H         4.250227         2.123465        -2.729255
 H         3.289601         2.407687        -4.298031
 H         3.232641         2.033949        -0.465168
 H         2.316872         3.544085        -0.500402
 H         0.340043         2.510579         0.299426
 H         0.514945        -0.010921        -1.396146
 H        -0.817502         1.259662        -1.502495
 H         0.901629         1.445807        -3.763158
 H         1.225865        -0.501855         0.274927
