19
Iteration:  3676charge 0 multiplicity 1
 C         3.454251         2.937396        -2.621359
 C         2.088185         2.551109        -2.211531
 C         1.636966         2.787074        -0.744677
 C         0.668306         1.677146        -0.307469
 C         0.559598         0.653219        -1.608508
 C         1.216391         1.484679        -2.761051
 O         0.829520         2.845056        -2.972877
 C         1.090549         0.823975         0.943980
 O         2.196340         0.807091         1.393898
 H         3.722133         4.011663        -2.687136
 H         4.129906         2.499232        -1.796563
 H         3.516228         2.413551        -3.616897
 H         2.476144         2.817269        -0.147853
 H         1.368978         3.865292        -0.555059
 H        -0.399799         2.112929        -0.117225
 H         1.231468        -0.135021        -1.351272
 H        -0.459050         0.392690        -1.787601
 H         1.659611         0.855944        -3.626770
 H         0.366065         0.371747         1.683768
