19
Iteration:  2209
 C         3.366006         2.552593        -2.883415
 C         2.098998         2.504588        -2.250996
 C         2.046279         2.892038        -0.776928
 C         0.978208         1.924947        -0.164098
 C         0.239736         1.212199        -1.342470
 C         1.107177         1.547353        -2.546597
 O         0.847868         2.936579        -3.046010
 C         1.567632         0.708361         0.520751
 O         1.570425         0.388202         1.645882
 H         3.731505         3.538164        -3.092104
 H         4.039657         2.112247        -2.228098
 H         3.504351         2.019352        -3.846864
 H         3.057268         2.786750        -0.202414
 H         1.756320         3.945499        -0.562561
 H         0.470402         2.261383         0.751643
 H         0.060961         0.172974        -1.117241
 H        -0.851247         1.555440        -1.429344
 H         1.151424         0.877989        -3.329085
 H         2.115587         0.037980        -0.199025
