19
Iteration:   311
 C         3.308504         2.087912        -3.199388
 C         2.150345         2.262680        -2.288473
 C         2.339558         2.276907        -0.798788
 C         0.928549         1.898734        -0.147665
 C        -0.089838         1.774713        -1.230616
 C         0.673165         2.057882        -2.557417
 O         1.280270         3.349195        -2.784696
 C         1.342836         0.576363         0.527625
 O         1.782587         0.377365         1.659453
 H         3.945176         3.050796        -3.244454
 H         3.972228         1.209511        -2.842954
 H         3.039142         1.745143        -4.176163
 H         3.135945         1.572322        -0.624501
 H         2.822202         3.154762        -0.429843
 H         0.733365         2.551447         0.729189
 H        -0.465530         0.786350        -1.208135
 H        -0.890137         2.508771        -1.155510
 H         0.372940         1.545370        -3.604002
 H         1.087473        -0.345770        -0.071506
