19
Iteration:  2262
 C         3.419492         2.545889        -3.003062
 C         2.068301         2.445091        -2.198351
 C         1.920733         2.837645        -0.721560
 C         0.906711         1.825891        -0.147025
 C         0.120553         1.208063        -1.471638
 C         0.986528         1.569354        -2.658649
 O         0.999673         3.004904        -3.036831
 C         1.763367         0.783037         0.648958
 O         1.568825         0.364395         1.759970
 H         3.821641         3.556226        -2.889607
 H         4.311170         2.103811        -2.646719
 H         3.293924         2.275931        -4.120861
 H         3.032913         2.747647        -0.479709
 H         1.634334         3.800889        -0.522899
 H         0.231226         2.142912         0.586787
 H        -0.208638         0.189808        -1.293289
 H        -0.828490         1.789197        -1.304629
 H         1.205578         0.921641        -3.438745
 H         2.760206         0.587705         0.179771
