19
Iteration:  4983charge 0 multiplicity 1
 C         3.453006         2.930404        -2.260690
 C         2.052320         2.542484        -2.095256
 C         1.239232         3.153377        -0.881933
 C         0.640179         1.921147        -0.183975
 C         0.254288         0.930008        -1.358347
 C         1.347871         1.303312        -2.447592
 O         0.985957         2.421128        -3.223178
 C         1.680169         1.288977         0.871309
 O         2.154816         0.177599         0.795448
 H         3.555869         3.994962        -1.988448
 H         3.840924         2.249738        -1.562533
 H         3.777526         2.607065        -3.274682
 H         1.736564         3.863297        -0.274199
 H         0.234919         3.820467        -1.143179
 H        -0.232674         2.243223         0.388509
 H         0.473824        -0.193776        -1.039891
 H        -0.809311         0.972531        -1.750130
 H         1.971194         0.635640        -2.963639
 H         1.801026         1.969076         1.708585
