19
Iteration:  3062
 C         3.391939         2.738509        -2.827907
 C         2.061008         2.523625        -2.222612
 C         1.902168         2.874910        -0.806854
 C         0.943445         1.720939        -0.214398
 C         0.263193         0.960964        -1.451985
 C         1.105797         1.476428        -2.688463
 O         0.883984         2.927388        -3.036676
 C         1.786086         0.814807         0.642581
 O         1.494647         0.545323         1.774548
 H         3.724642         3.786703        -2.793157
 H         4.091220         2.006259        -2.396402
 H         3.204171         2.335289        -3.949602
 H         2.806908         2.841555        -0.318129
 H         1.479534         3.938192        -0.616787
 H         0.064997         2.126253         0.337571
 H         0.439521        -0.127337        -1.269722
 H        -0.790532         1.394961        -1.504268
 H         1.230733         0.895654        -3.658906
 H         2.823575         0.525425         0.223815
