19
Iteration:  3846
 C         3.241575         3.232636        -3.042763
 C         2.103828         2.624476        -2.209598
 C         2.106642         2.683446        -0.726059
 C         0.811916         1.645689        -0.443253
 C         1.056934         0.555764        -1.449618
 C         1.335324         1.433561        -2.759198
 O         0.680882         2.795336        -2.645399
 C         0.881683         1.183505         0.957449
 O         1.655947         0.441073         1.475514
 H         2.900504         4.224051        -3.494926
 H         4.184931         3.103453        -2.484798
 H         3.282158         2.725309        -4.167616
 H         2.903799         2.212834        -0.212411
 H         1.919742         3.710470        -0.418424
 H        -0.183352         2.117528        -0.491826
 H         2.022739        -0.045159        -1.307282
 H         0.093981        -0.118260        -1.445969
 H         1.484670         1.003837        -3.823553
 H         0.125010         1.573933         1.669185
