19
Iteration:  3681
 C         3.438589         2.930463        -2.628589
 C         2.046449         2.534497        -2.151714
 C         1.658451         2.823653        -0.771532
 C         0.622813         1.695478        -0.306062
 C         0.621106         0.646986        -1.608419
 C         1.249210         1.457245        -2.740328
 O         0.821028         2.865144        -2.960065
 C         1.058691         0.860895         0.926309
 O         2.222435         0.783435         1.372702
 H         3.763653         3.999642        -2.794390
 H         4.125522         2.427944        -1.908356
 H         3.593738         2.492328        -3.595539
 H         2.602796         2.526646        -0.054621
 H         1.216760         3.817301        -0.680142
 H        -0.323754         2.143051        -0.031116
 H         1.331878        -0.206163        -1.310575
 H        -0.432996         0.327368        -1.861315
 H         1.518487         0.867649        -3.554913
 H         0.161858         0.453643         1.560621
