19
Iteration:  4245
 C         3.109610         3.463081        -3.145036
 C         2.164477         2.636869        -2.282328
 C         2.097837         2.676757        -0.755025
 C         0.907611         1.798894        -0.305252
 C         0.898254         0.647949        -1.366317
 C         1.417400         1.347266        -2.667511
 O         0.813946         2.623856        -2.899183
 C         0.999699         1.248634         1.142228
 O         1.458775         0.145963         1.438044
 H         2.771914         4.516813        -3.057569
 H         4.148053         3.400613        -2.775831
 H         3.107389         3.274960        -4.131323
 H         3.173723         2.380302        -0.275152
 H         2.050538         3.676957        -0.349659
 H         0.012646         2.480091        -0.417523
 H         1.606055        -0.194483        -0.985422
 H        -0.167410         0.310766        -1.489638
 H         1.783897         0.733792        -3.505495
 H         0.585940         1.848672         1.932239
