19
Iteration:  2255charge 0 multiplicity 1
 C         3.445424         2.554416        -2.996836
 C         2.107253         2.400470        -2.211132
 C         1.954368         2.762459        -0.718944
 C         0.880920         1.766401        -0.115944
 C         0.147678         1.230847        -1.422084
 C         1.000957         1.607342        -2.597813
 O         0.953685         3.014364        -3.035212
 C         1.801308         0.831861         0.582610
 O         1.541472         0.389552         1.726784
 H         3.674563         3.636823        -3.068012
 H         4.334520         2.021463        -2.590624
 H         3.399398         2.294856        -4.015976
 H         2.922105         2.942083        -0.152716
 H         1.532615         3.873875        -0.750431
 H         0.063390         2.298351         0.497209
 H        -0.197311         0.178139        -1.394307
 H        -0.866865         1.738523        -1.491114
 H         0.980011         0.803396        -3.390263
 H         2.761707         0.507723         0.079172
