19
Iteration:  2704charge 0 multiplicity 1
 C         3.310636         2.873504        -3.150620
 C         2.125411         2.598185        -2.340924
 C         2.194456         2.661734        -0.776816
 C         0.991607         1.656923        -0.256457
 C         0.449095         0.856823        -1.505708
 C         1.126053         1.597415        -2.668638
 O         0.799705         2.924931        -2.803654
 C         1.600953         0.701391         0.753648
 O         1.248618         0.754520         1.906630
 H         3.829129         3.775875        -2.738345
 H         4.062164         2.072001        -3.215613
 H         3.046896         3.064813        -4.259665
 H         3.240525         2.225349        -0.609019
 H         2.326290         3.560724        -0.297044
 H         0.214577         2.209897         0.178337
 H         0.702707        -0.266682        -1.526216
 H        -0.592457         0.934749        -1.496777
 H         1.317845         0.986422        -3.547795
 H         2.064229        -0.165168         0.250132
