19
Iteration:  4628
 C         3.310493         3.236485        -2.986565
 C         2.036103         2.725722        -2.238487
 C         1.825630         2.964404        -0.817662
 C         0.868662         1.771142        -0.284844
 C         0.945838         0.670453        -1.441713
 C         1.430914         1.436477        -2.635405
 O         0.711918         2.612201        -2.968946
 C         1.212349         1.217803         1.136638
 O         1.494086         0.051068         1.391817
 H         3.220887         4.301839        -3.171909
 H         4.228823         3.041311        -2.363878
 H         3.447290         2.692718        -3.845386
 H         2.903112         2.906268        -0.406999
 H         1.305094         3.931244        -0.389084
 H        -0.191278         2.087237        -0.112504
 H         1.691190        -0.139003        -1.052053
 H        -0.028417         0.075664        -1.619230
 H         1.837135         0.894076        -3.542067
 H         1.299658         1.909058         1.963785
