19
Iteration:  2709charge 0 multiplicity 1
 C         3.344286         2.876404        -3.121088
 C         2.118389         2.577714        -2.327100
 C         2.163782         2.613969        -0.740235
 C         0.955467         1.711609        -0.273503
 C         0.475983         0.890177        -1.481422
 C         1.125447         1.533895        -2.708505
 O         0.771675         2.947646        -2.807264
 C         1.620922         0.715999         0.730143
 O         1.287672         0.743813         1.876370
 H         3.828496         3.733525        -2.676089
 H         4.083499         2.058822        -3.019398
 H         3.019660         2.954129        -4.136026
 H         3.099711         2.082522        -0.646028
 H         2.307242         3.784155        -0.379731
 H         0.132738         2.344720         0.241703
 H         0.811528        -0.132709        -1.437383
 H        -0.668505         1.006662        -1.558408
 H         1.233120         0.909989        -3.675031
 H         2.117130        -0.222151         0.278364
