19
Iteration:  1778
 C         3.291698         2.657172        -3.314373
 C         2.077075         2.566945        -2.338467
 C         2.303844         2.576702        -0.865762
 C         1.161602         1.672161        -0.226952
 C         0.506009         0.962564        -1.467931
 C         1.004991         1.633663        -2.665985
 O         0.839681         3.190005        -2.597111
 C         1.669913         0.707168         0.760060
 O         1.022235         0.595815         1.849273
 H         3.724138         3.621591        -3.130001
 H         4.082767         1.847847        -3.253861
 H         2.887883         2.568980        -4.338288
 H         3.316523         2.225640        -0.547701
 H         2.372855         3.655352        -0.600963
 H         0.375415         2.293403         0.266262
 H         0.726166        -0.056315        -1.464381
 H        -0.575063         1.139591        -1.342003
 H         0.996371         1.173196        -3.744003
 H         2.678879         0.261243         0.597003
