19
Iteration:  2299charge 0 multiplicity 1
 C         3.509042         2.544742        -2.971197
 C         2.093600         2.519624        -2.289728
 C         1.948118         2.866642        -0.781332
 C         1.049119         1.818670        -0.095371
 C         0.261694         1.180900        -1.329864
 C         1.004955         1.610094        -2.654895
 O         0.807567         2.975217        -3.043134
 C         1.637705         0.702901         0.564124
 O         1.502414         0.405093         1.751726
 H         3.838707         3.543337        -2.743806
 H         4.101152         1.700016        -2.641076
 H         3.477618         2.564842        -4.002923
 H         2.943649         2.764697        -0.246493
 H         1.618066         3.967554        -0.496602
 H         0.330315         2.274771         0.687989
 H         0.156706         0.071015        -1.255702
 H        -0.755280         1.633678        -1.456096
 H         1.406281         0.869658        -3.422046
 H         2.444347         0.210579        -0.039587
