19
Iteration:  3760
 C         3.228419         3.325835        -2.835234
 C         2.126915         2.576507        -2.206203
 C         1.994199         2.768732        -0.727138
 C         0.770902         1.754173        -0.285797
 C         0.591142         0.706207        -1.527954
 C         1.404864         1.326526        -2.623705
 O         0.868227         2.595788        -3.016778
 C         0.919655         1.077561         1.030509
 O         1.968740         0.481911         1.382233
 H         3.167016         4.302350        -2.325231
 H         4.228313         2.984376        -2.817890
 H         3.086942         3.443466        -4.005666
 H         2.956442         2.339183        -0.096859
 H         1.565602         3.711318        -0.360481
 H        -0.048674         2.378045        -0.189008
 H         0.787060        -0.374347        -1.233143
 H        -0.568721         0.605951        -1.769326
 H         1.666721         0.512502        -3.411756
 H        -0.065826         1.021669         1.478969
