19
Iteration:  4485
 C         3.117562         3.483185        -3.221970
 C         2.097066         2.699553        -2.307416
 C         2.053515         2.788569        -0.763476
 C         1.040521         1.687453        -0.341462
 C         1.153936         0.558792        -1.353504
 C         1.450469         1.409472        -2.680021
 O         0.695336         2.647260        -2.768417
 C         1.230951         1.246346         1.085265
 O         1.077127         0.100615         1.486573
 H         3.184808         4.554749        -2.877693
 H         4.132218         3.057366        -2.940252
 H         2.849942         3.343196        -4.201810
 H         3.014583         2.574561        -0.256124
 H         1.897554         3.886086        -0.583788
 H         0.030253         2.149968        -0.398289
 H         1.929821        -0.109656        -1.030786
 H         0.299759        -0.136978        -1.438310
 H         1.694344         0.709041        -3.524278
 H         1.436739         2.105984         1.772990
