19
Iteration:  3160
 C         3.295201         3.052521        -3.214535
 C         2.107472         2.552795        -2.378533
 C         2.230290         2.678606        -0.907254
 C         1.124561         1.734984        -0.185018
 C         0.546265         0.921470        -1.350024
 C         1.175018         1.481469        -2.668993
 O         0.762826         2.862371        -2.884334
 C         1.606756         0.819826         0.839624
 O         1.068251         0.490741         1.881768
 H         3.414136         4.080724        -2.947492
 H         4.106211         2.516495        -2.769552
 H         3.161076         2.875708        -4.350147
 H         3.238993         2.444929        -0.585002
 H         1.972842         3.788950        -0.576455
 H         0.351769         2.349970         0.404535
 H         0.894419        -0.075824        -1.221053
 H        -0.549294         1.109179        -1.498215
 H         1.116812         0.753624        -3.534687
 H         2.529238         0.210816         0.528785
