19
Iteration:   225
 C         3.368454         2.150464        -3.229066
 C         2.130931         2.289730        -2.263070
 C         2.260885         2.123319        -0.769247
 C         0.908225         1.979121        -0.171755
 C         0.059149         1.509990        -1.326284
 C         0.790602         1.969514        -2.573426
 O         1.232612         3.368295        -2.610080
 C         1.019967         0.983623         0.909692
 O         1.978408         0.298069         1.240945
 H         4.291817         2.790446        -2.945769
 H         3.720631         1.104534        -3.441686
 H         3.002412         2.663263        -4.076490
 H         2.930502         1.149671        -0.689581
 H         2.762359         2.985669        -0.290045
 H         0.543989         2.882559         0.352734
 H         0.104518         0.386151        -1.384520
 H        -1.024619         1.671034        -1.258032
 H         0.448094         1.469015        -3.575108
 H        -0.009512         0.790985         1.315984
