19
Iteration:  1575
 C         3.442523         2.548518        -2.989499
 C         2.101436         2.417493        -2.253212
 C         2.009049         2.775296        -0.791697
 C         0.990623         1.814740        -0.148504
 C        -0.027494         1.430746        -1.411706
 C         0.955114         1.580970        -2.572416
 O         1.008224         2.961758        -2.978670
 C         1.705477         0.575028         0.554276
 O         1.597176         0.467449         1.748424
 H         3.966509         3.408944        -2.438487
 H         4.249411         1.816137        -2.881981
 H         3.196733         2.730697        -4.006266
 H         2.919373         2.685480        -0.212059
 H         1.636210         3.772452        -0.646192
 H         0.479740         2.351580         0.654095
 H        -0.228312         0.358718        -1.455444
 H        -0.942290         2.015691        -1.396338
 H         1.116649         0.981757        -3.481232
 H         2.380787        -0.096534        -0.073918
