19
Iteration:  3240
 C         3.118486         3.106389        -3.383822
 C         2.121144         2.573124        -2.377026
 C         2.563504         2.443980        -0.972529
 C         1.403410         1.697825        -0.330254
 C         0.945925         0.707884        -1.407787
 C         1.015126         1.559340        -2.635446
 O         0.589385         2.952008        -2.529137
 C         1.569379         0.916808         1.032783
 O         0.613252         0.618176         1.766399
 H         3.598283         4.070586        -3.204967
 H         4.083210         2.505257        -3.317055
 H         2.787492         3.170214        -4.419664
 H         3.473402         1.898809        -0.980710
 H         2.603937         3.458035        -0.553957
 H         0.676990         2.402867        -0.200848
 H         1.700457        -0.108428        -1.521439
 H         0.038113         0.165883        -1.344744
 H         0.855786         1.072639        -3.583958
 H         2.631709         0.789032         1.265757
