19
Iteration:  4803
 C         3.431098         2.973950        -2.439092
 C         1.914899         2.554141        -2.105197
 C         1.408687         3.144892        -0.772405
 C         0.545237         1.826095        -0.162919
 C         0.324024         0.805466        -1.336642
 C         1.334247         1.233432        -2.450632
 O         1.084160         2.551374        -3.215031
 C         1.509067         1.302100         0.893429
 O         2.139923         0.242460         0.848206
 H         3.685741         4.051616        -2.508118
 H         4.074124         2.495713        -1.598898
 H         3.698362         2.641321        -3.374992
 H         2.269069         3.389351        -0.320529
 H         0.746175         4.005728        -1.046625
 H        -0.340660         2.231325         0.251534
 H         0.525284        -0.234037        -1.077231
 H        -0.744485         0.916974        -1.704547
 H         1.817428         0.386813        -3.047672
 H         1.677305         1.916737         1.762975
