19
Iteration:  2485charge 0 multiplicity 1
 C         3.232717         2.976103        -3.352834
 C         2.085751         2.569946        -2.411276
 C         2.385521         2.436594        -0.942947
 C         1.228567         1.708926        -0.238673
 C         0.560688         0.922632        -1.398616
 C         1.011963         1.504062        -2.700049
 O         0.814016         3.098473        -2.719660
 C         1.655935         0.822402         0.970036
 O         0.891025         0.524428         1.947872
 H         4.018696         3.719436        -3.001941
 H         3.729891         1.985527        -3.515961
 H         3.073164         3.355633        -4.330790
 H         3.360126         1.963343        -0.764363
 H         2.413090         3.505346        -0.533229
 H         0.405326         2.401200        -0.026709
 H         1.217652         0.033601        -1.591395
 H        -0.522026         0.693229        -1.282507
 H         0.903847         1.129844        -3.720567
 H         2.736428         0.571729         1.052819
