19
Iteration:  2870charge 0 multiplicity 1
 C         3.508590         2.676898        -2.703969
 C         2.041532         2.510768        -2.206337
 C         1.782297         2.839743        -0.761051
 C         0.828061         1.641877        -0.199942
 C         0.098824         1.085706        -1.492337
 C         1.121925         1.503182        -2.660745
 O         0.889044         2.843392        -3.016935
 C         1.777238         0.775189         0.485713
 O         1.710569         0.720222         1.715120
 H         3.899748         3.677667        -2.424675
 H         4.382970         1.964237        -2.651082
 H         3.439822         2.552979        -3.884693
 H         2.741932         2.884498        -0.110761
 H         1.482746         3.780470        -0.520842
 H        -0.070106         1.888360         0.535204
 H        -0.090600        -0.035270        -1.407803
 H        -0.850244         1.659490        -1.642748
 H         1.651412         0.626298        -3.371034
 H         2.496611         0.196660        -0.206194
