19
Iteration:  3815
 C        -2.258145        -1.745015        -0.790708
 C        -1.442982        -0.446779        -1.156837
 C        -1.921199         0.802938        -1.849133
 C        -0.696943         0.169546        -2.321338
 C         0.768931         0.434987        -1.834239
 C         0.486574         0.633563        -0.302411
 O        -0.501264        -0.273806         0.050706
 C         1.696462         0.473854         0.588689
 O         2.348267         1.357591         1.120349
 H        -2.112443        -1.932465         0.224969
 H        -3.384072        -1.484850        -0.857739
 H        -1.920207        -2.562388        -1.364992
 H        -2.786392         0.687056        -2.433977
 H        -1.988164         1.731582        -1.340320
 H        -0.560891        -0.410732        -3.234238
 H         1.462315        -0.265334        -2.114342
 H         1.173199         1.401499        -2.199043
 H         0.118569         1.709127        -0.034343
 H         1.864766        -0.590578         0.820008
