19
Iteration:  1626
 C        -1.468058        -1.835814        -0.741299
 C        -1.311991        -0.411975        -0.976201
 C        -2.061929         0.401302        -1.937856
 C        -0.623649         0.327362        -2.132917
 C         0.284653         1.362201        -1.459506
 C         0.337587         0.999476         0.037949
 O        -0.921078         0.314251         0.264226
 C         1.561465         0.113015         0.476994
 O         2.669488         0.221591         0.076548
 H        -2.290698        -2.032546         0.059863
 H        -2.003750        -2.319827        -1.564914
 H        -0.472284        -2.277807        -0.346643
 H        -2.647540        -0.247568        -2.606769
 H        -2.502101         1.354162        -1.736909
 H        -0.207385        -0.357933        -2.815204
 H         1.286158         1.480791        -2.045521
 H        -0.292671         2.358371        -1.346902
 H         0.477790         1.985782         0.607021
 H         1.066774        -0.499415         1.321947
