19
Iteration:  1181charge 0 multiplicity 1
 C        -1.573573        -1.846127        -0.737733
 C        -1.416714        -0.312407        -0.994754
 C        -2.104233         0.569624        -2.011055
 C        -0.652221         0.221769        -2.079944
 C         0.435658         1.199235        -1.504022
 C         0.355010         0.813186         0.063578
 O        -0.925848         0.246873         0.314571
 C         1.608412         0.007353         0.334880
 O         2.694587         0.575152         0.228820
 H        -2.136064        -1.937218         0.236898
 H        -2.118433        -2.448298        -1.402467
 H        -0.591306        -2.220929        -0.600788
 H        -2.789977        -0.070664        -2.579059
 H        -2.477884         1.493157        -1.634818
 H        -0.526922        -0.444435        -2.938329
 H         1.425760         1.077473        -1.930888
 H         0.129228         2.178809        -1.706044
 H         0.475493         1.879839         0.580955
 H         1.485053        -0.996625         0.622399
