19
Iteration:  2832
 C        -1.510150        -1.876814        -0.652817
 C        -1.189233        -0.399839        -1.016590
 C        -2.212017         0.472914        -1.941080
 C        -0.683505         0.290364        -2.225996
 C         0.291621         1.391809        -1.565431
 C         0.321695         1.020841         0.015407
 O        -0.846430         0.236277         0.173402
 C         1.538473         0.212355         0.613214
 O         2.737878         0.161784         0.191689
 H        -2.553440        -1.891320        -0.336237
 H        -1.364089        -2.486866        -1.496055
 H        -0.864107        -2.270878         0.213449
 H        -2.877694        -0.129408        -2.564326
 H        -2.706910         1.329728        -1.485779
 H        -0.288039        -0.118370        -3.194922
 H         1.218871         1.416547        -2.205511
 H        -0.068853         2.465954        -1.639526
 H         0.247263         1.779918         0.763187
 H         1.321585        -0.323907         1.567773
