19
Iteration:  4927
 C        -1.792152        -1.991753        -0.826087
 C        -1.246666        -0.482069        -1.044543
 C        -1.778899         0.377478        -2.075804
 C        -0.370034        -0.002604        -2.206799
 C         0.548540         1.027880        -1.640448
 C         0.296514         1.123632        -0.136197
 O        -1.041093         0.411791         0.097379
 C         1.323928         0.510707         0.719225
 O         2.560211         0.467175         0.693069
 H        -1.607863        -2.465698         0.085599
 H        -2.997805        -1.935646        -0.994622
 H        -1.273099        -2.538296        -1.607865
 H        -2.419904        -0.144998        -2.777271
 H        -2.043382         1.389479        -1.770938
 H         0.081241        -0.694391        -2.835859
 H         1.589936         0.781954        -1.882990
 H         0.518941         1.982569        -2.131353
 H         0.191465         2.204291         0.300075
 H         0.878632         0.092868         1.697049
