19
Iteration:  1964
 C        -1.473970        -1.902309        -0.786746
 C        -1.319992        -0.440845        -0.902455
 C        -1.997878         0.517654        -1.805475
 C        -0.587078         0.211106        -2.041908
 C         0.484763         1.259317        -1.559719
 C         0.254621         1.072398         0.007150
 O        -0.909827         0.293324         0.275913
 C         1.430746         0.165213         0.406684
 O         2.526719         0.326987         0.069246
 H        -2.236458        -2.096638        -0.128213
 H        -1.650659        -2.253308        -1.793539
 H        -0.523873        -2.559398        -0.645248
 H        -2.721370         0.188590        -2.589222
 H        -2.320844         1.512682        -1.489512
 H        -0.335147        -0.410202        -2.852129
 H         1.565562         1.024988        -1.557791
 H         0.214743         2.209809        -1.853074
 H         0.382655         2.065265         0.653076
 H         1.255848        -0.708323         1.111845
