19
Iteration:  2398charge 0 multiplicity 1
 C        -1.655509        -1.910811        -0.774997
 C        -1.294511        -0.436789        -0.970994
 C        -2.105585         0.574533        -1.839198
 C        -0.587915         0.214473        -2.162892
 C         0.373158         1.244635        -1.558530
 C         0.277921         1.048624         0.022222
 O        -0.785049         0.134518         0.190633
 C         1.532675         0.294400         0.537493
 O         2.704071         0.332512         0.182639
 H        -2.094107        -2.048622         0.376388
 H        -2.403164        -2.019209        -1.520226
 H        -0.788351        -2.563727        -0.835466
 H        -2.707810         0.044964        -2.549979
 H        -2.390361         1.536327        -1.393760
 H        -0.374795        -0.300990        -3.141199
 H         1.390080         1.077623        -1.858875
 H         0.003615         2.234293        -1.861194
 H        -0.077605         1.968263         0.503107
 H         1.267816        -0.268461         1.458851
