19
Iteration:  1538charge 0 multiplicity 1
 C        -1.588237        -1.890061        -0.782872
 C        -1.276260        -0.445816        -0.991853
 C        -2.167020         0.440134        -1.848111
 C        -0.568411         0.210291        -2.119519
 C         0.279234         1.400946        -1.583075
 C         0.359270         1.068987        -0.034730
 O        -0.848568         0.279913         0.300085
 C         1.497953         0.184364         0.503054
 O         2.730801         0.257767         0.196628
 H        -2.547631        -2.035251        -0.192172
 H        -1.801173        -2.334252        -1.796594
 H        -0.638021        -2.462735        -0.438427
 H        -2.781474        -0.058028        -2.561649
 H        -2.423685         1.458829        -1.596092
 H        -0.150905        -0.301803        -2.993473
 H         1.297233         1.340563        -1.968450
 H        -0.319418         2.302498        -1.694304
 H         0.432405         1.954934         0.495738
 H         1.386089        -0.608131         1.276895
