19
Iteration:  2870
 C        -1.316020        -1.877114        -0.819104
 C        -1.263137        -0.394353        -0.879113
 C        -2.123857         0.494583        -1.887165
 C        -0.607358         0.242026        -2.036592
 C         0.353856         1.250360        -1.604112
 C         0.339633         1.027363        -0.033320
 O        -0.917945         0.396312         0.303827
 C         1.387512         0.163213         0.475878
 O         2.599078         0.199086         0.145581
 H        -2.307319        -2.242006        -0.379286
 H        -1.690815        -2.123300        -1.914759
 H        -0.475698        -2.516344        -0.578384
 H        -2.836820        -0.093224        -2.478304
 H        -2.379037         1.503662        -1.530945
 H        -0.336971        -0.434522        -2.825180
 H         1.365450         1.164773        -1.937247
 H         0.021137         2.198086        -1.992821
 H         0.456506         2.016957         0.661526
 H         1.039568        -0.385685         1.381022
