19
Iteration:  3373
 C        -1.798515        -1.877493        -0.882565
 C        -1.319235        -0.425761        -0.922401
 C        -1.948963         0.532032        -1.891898
 C        -0.505238         0.116530        -2.165772
 C         0.397670         1.162637        -1.628675
 C         0.254272         0.998885        -0.046847
 O        -0.811709         0.138856         0.237594
 C         1.547726         0.297233         0.607167
 O         2.655215         0.534504         0.322395
 H        -2.629659        -1.942875        -1.591575
 H        -1.015482        -2.411164        -1.243713
 H        -2.006457        -2.262289         0.153858
 H        -2.770372         0.110593        -2.444604
 H        -2.223073         1.519580        -1.500458
 H        -0.315510        -0.364503        -3.122810
 H         1.420990         0.815416        -1.852337
 H         0.305440         2.271088        -1.951507
 H         0.075718         1.797063         0.627636
 H         1.139962        -0.466442         1.333012
