19
Iteration:   897
 C        -1.511834        -1.848854        -0.831447
 C        -1.305033        -0.419119        -0.988444
 C        -2.123643         0.458252        -1.892603
 C        -0.658934         0.310086        -2.137735
 C         0.378020         1.243904        -1.534532
 C         0.367388         1.023134         0.042143
 O        -0.880423         0.224379         0.308594
 C         1.546283         0.312668         0.621203
 O         2.611462         0.197392         0.055720
 H        -2.419076        -2.012531        -0.182103
 H        -1.627518        -2.456209        -1.741040
 H        -0.637134        -2.085734        -0.319159
 H        -2.793641        -0.037952        -2.582852
 H        -2.425558         1.455631        -1.640312
 H        -0.375963        -0.311585        -3.029734
 H         1.301465         0.906608        -1.962838
 H         0.424300         2.355414        -1.719918
 H         0.219854         2.032999         0.609781
 H         1.331127        -0.075555         1.584390
