19
Iteration:  4181
 C        -1.939085        -1.831828        -0.980459
 C        -1.424003        -0.405422        -1.094802
 C        -2.005378         0.639361        -1.944635
 C        -0.589243         0.020240        -2.265569
 C         0.625044         0.665120        -1.655798
 C         0.364961         0.894767        -0.179857
 O        -0.769014         0.031305         0.215634
 C         1.499459         0.592074         0.872106
 O         2.683895         0.837239         0.603669
 H        -2.872072        -1.828601        -1.436948
 H        -1.240139        -2.485588        -1.471771
 H        -2.215562        -2.169887         0.053510
 H        -2.919996         0.465027        -2.484775
 H        -1.948970         1.623543        -1.465218
 H        -0.589637        -0.552986        -3.189778
 H         1.523826         0.048132        -1.794270
 H         1.025766         1.621702        -2.068544
 H        -0.045979         1.916882         0.135435
 H         1.274842         0.067739         1.803290
