19
Iteration:  4979charge 0 multiplicity 1
 C        -1.562113        -1.797642        -0.661865
 C        -1.282827        -0.402474        -1.156132
 C        -1.874833         0.366924        -2.325936
 C        -0.366188         0.041932        -2.189758
 C         0.641963         0.998061        -1.525073
 C         0.191930         1.048819        -0.102283
 O        -1.022059         0.317834         0.141989
 C         1.293156         0.494181         0.823905
 O         2.431633         0.406005         0.540165
 H        -0.676213        -2.448577        -0.409676
 H        -2.009564        -1.807700         0.325344
 H        -2.337172        -2.295250        -1.360786
 H        -2.362657        -0.260000        -3.110754
 H        -2.158238         1.416836        -2.083586
 H         0.033548        -0.595698        -2.896932
 H         1.632226         0.617364        -1.611782
 H         0.774948         2.064241        -1.951871
 H         0.016351         2.103195         0.155901
 H         1.030526         0.117367         1.868997
