19
Iteration:  2703
 C        -1.715851        -1.868934        -0.732685
 C        -1.236242        -0.456386        -1.009386
 C        -2.100576         0.481158        -1.890026
 C        -0.623118         0.302942        -2.150207
 C         0.279681         1.375562        -1.615819
 C         0.383735         1.001971        -0.063448
 O        -0.810409         0.154767         0.196021
 C         1.553422         0.218128         0.537798
 O         2.709338         0.323385         0.262113
 H        -2.285598        -1.987507         0.283676
 H        -2.089503        -2.562190        -1.444638
 H        -0.706657        -2.437735        -0.343263
 H        -2.868151        -0.028416        -2.481214
 H        -2.347044         1.377459        -1.326238
 H        -0.436434        -0.363312        -3.012684
 H         1.272734         1.232816        -2.039000
 H        -0.091945         2.434497        -1.638459
 H         0.516047         1.938388         0.576422
 H         1.171063        -0.422435         1.363695
