19
Iteration:  3238
 C        -1.579912        -1.879220        -0.741000
 C        -1.286848        -0.448943        -1.057782
 C        -2.040603         0.476847        -2.025676
 C        -0.607493         0.300069        -2.068844
 C         0.429181         1.291278        -1.471791
 C         0.327580         0.958350        -0.024171
 O        -0.962629         0.267834         0.242759
 C         1.570699         0.240300         0.597085
 O         2.643794         0.328373         0.139904
 H        -0.588277        -2.488128        -0.682134
 H        -2.149389        -2.010345         0.344590
 H        -2.282304        -2.405821        -1.379276
 H        -2.611275        -0.151854        -2.748073
 H        -2.557793         1.393551        -1.645538
 H        -0.307592        -0.322511        -2.980813
 H         1.429714         1.140830        -1.915542
 H        -0.050885         2.300603        -1.560460
 H         0.178975         1.697136         0.695366
 H         1.294140        -0.466419         1.440058
