19
Iteration:  2673charge 0 multiplicity 1
 C        -1.584097        -1.826688        -0.829797
 C        -1.334519        -0.378462        -0.903684
 C        -2.152170         0.466453        -1.782193
 C        -0.702358         0.251712        -2.147161
 C         0.314947         1.285177        -1.677473
 C         0.336138         1.039523        -0.104417
 O        -0.791628         0.197012         0.212986
 C         1.567404         0.213832         0.499574
 O         2.753834         0.302701         0.354795
 H        -2.518899        -2.219838        -0.375186
 H        -1.405160        -2.313803        -1.732008
 H        -0.779514        -2.218117        -0.269102
 H        -3.005578         0.050691        -2.398016
 H        -2.388651         1.479918        -1.384651
 H        -0.448083        -0.514380        -2.922532
 H         1.316206         0.916891        -2.062761
 H        -0.055368         2.411488        -1.923685
 H         0.406812         1.927815         0.430483
 H         1.148790        -0.646855         1.090026
