19
Iteration:  4432
 C        -1.960113        -1.798204        -0.829686
 C        -1.407881        -0.421752        -0.993602
 C        -2.066416         0.686875        -1.882238
 C        -0.733545         0.109498        -2.283326
 C         0.618253         0.675458        -1.837651
 C         0.506175         0.824665        -0.343398
 O        -0.586948         0.070636         0.086165
 C         1.658230         0.286926         0.491138
 O         2.419451         1.053965         1.127350
 H        -3.019669        -1.827346        -1.160716
 H        -1.500021        -2.594132        -1.417206
 H        -1.823018        -2.403410         0.160464
 H        -2.872937         0.447737        -2.582012
 H        -2.075602         1.637964        -1.334347
 H        -0.722538        -0.712425        -3.080428
 H         1.355247        -0.044528        -2.113663
 H         0.934674         1.700607        -2.239432
 H         0.433303         1.820942        -0.087183
 H         1.601840        -0.871455         0.798895
