19
Iteration:  1594charge 0 multiplicity 1
 C        -1.386567        -1.838562        -0.711109
 C        -1.392551        -0.404978        -0.929329
 C        -2.076659         0.512584        -1.917879
 C        -0.636835         0.300377        -2.054431
 C         0.410776         1.197998        -1.418055
 C         0.290887         0.927435         0.036655
 O        -1.016897         0.334703         0.198760
 C         1.498137         0.078802         0.428629
 O         2.669906         0.356479         0.021858
 H        -2.414951        -2.114877        -0.128719
 H        -1.181025        -2.300352        -1.691130
 H        -0.529324        -2.133216        -0.002360
 H        -2.662011         0.081198        -2.743856
 H        -2.511817         1.440298        -1.600836
 H        -0.280787        -0.340118        -2.813094
 H         1.456385         1.242477        -1.849854
 H         0.258743         2.305814        -1.591983
 H         0.440170         1.743477         0.660985
 H         1.483021        -0.778780         1.200313
