19
Iteration:  1945charge 0 multiplicity 1
 C        -1.520025        -1.895273        -0.820769
 C        -1.297381        -0.420738        -0.919559
 C        -2.087665         0.472199        -1.897143
 C        -0.524112         0.245383        -2.096039
 C         0.355002         1.271325        -1.501455
 C         0.323408         1.031297         0.010963
 O        -0.928114         0.330733         0.317410
 C         1.535591         0.175880         0.486235
 O         2.609824         0.285115         0.079308
 H        -2.444617        -2.132222        -0.249160
 H        -1.421469        -2.430031        -1.775905
 H        -0.644728        -2.312971        -0.147348
 H        -2.881332         0.065886        -2.510621
 H        -2.467326         1.461363        -1.585052
 H        -0.204882        -0.320555        -2.914292
 H         1.300423         1.075988        -2.090179
 H         0.086510         2.362293        -1.731539
 H         0.153256         1.923638         0.529619
 H         1.201933        -0.619743         1.171176
