19
Iteration:  2770
 C        -1.604018        -1.858660        -0.880783
 C        -1.321834        -0.342867        -0.890258
 C        -1.975392         0.545873        -1.901591
 C        -0.434035         0.091380        -2.025606
 C         0.372987         1.165379        -1.487147
 C         0.309307         0.981831         0.062298
 O        -0.942462         0.267272         0.364213
 C         1.455025         0.237265         0.451176
 O         2.603013         0.400519        -0.021045
 H        -2.187253        -2.191440         0.093084
 H        -2.039938        -2.176876        -1.812650
 H        -0.629842        -2.487498        -0.766102
 H        -2.724305         0.142278        -2.618035
 H        -2.245337         1.597408        -1.613615
 H        -0.062928        -0.542841        -2.850009
 H         1.352096         0.943865        -1.843305
 H        -0.071468         2.100746        -1.702743
 H         0.095410         2.004073         0.545305
 H         1.321962        -0.427159         1.330043
