19
Iteration:  2098charge 0 multiplicity 1
 C        -1.479556        -1.912781        -0.807979
 C        -1.305232        -0.411607        -0.932585
 C        -2.097757         0.555519        -1.884644
 C        -0.631913         0.293031        -2.079527
 C         0.473513         1.152097        -1.492364
 C         0.308689         0.962545         0.099371
 O        -0.945961         0.257071         0.228220
 C         1.549585         0.257896         0.537033
 O         2.566770         0.343485        -0.027642
 H        -2.478969        -2.070996        -0.425496
 H        -1.363988        -2.401521        -1.796316
 H        -0.721095        -2.262700         0.014351
 H        -2.832373         0.174759        -2.598756
 H        -2.285823         1.487648        -1.386083
 H        -0.379382        -0.480887        -2.912520
 H         1.542321         0.877358        -1.604692
 H         0.203300         2.148311        -1.624590
 H         0.275209         2.081232         0.602047
 H         1.297874        -0.434944         1.432154
