19
Iteration:  1209charge 0 multiplicity 1
 C        -1.612597        -1.856254        -0.736170
 C        -1.374189        -0.352468        -0.999368
 C        -2.184833         0.491408        -1.944776
 C        -0.683684         0.242360        -2.116398
 C         0.405831         1.198121        -1.423144
 C         0.344741         0.891486         0.010770
 O        -0.948869         0.301503         0.251529
 C         1.683367         0.046868         0.355180
 O         2.778934         0.532057         0.257210
 H        -2.475890        -2.141331        -0.152136
 H        -1.868394        -2.277037        -1.809910
 H        -0.686466        -2.417549        -0.322812
 H        -2.848721        -0.052127        -2.591496
 H        -2.413649         1.482913        -1.544296
 H        -0.578631        -0.410306        -2.961708
 H         1.467649         0.921833        -1.812250
 H         0.284282         2.324579        -1.731693
 H         0.397784         1.814515         0.445800
 H         1.501800        -1.023390         0.782981
