19
Iteration:  4298charge 0 multiplicity 1
 C        -2.026874        -1.785304        -0.794131
 C        -1.406813        -0.403628        -1.012385
 C        -2.037957         0.586509        -2.029872
 C        -0.705553        -0.036372        -2.299340
 C         0.495306         0.813912        -1.793331
 C         0.420636         0.914448        -0.150502
 O        -0.745014         0.124646         0.153455
 C         1.877586         0.323608         0.297633
 O         2.574439         0.895182         1.182490
 H        -1.945574        -2.514290        -1.741854
 H        -1.575437        -2.074670         0.169022
 H        -3.082504        -1.644491        -0.629005
 H        -2.825702         0.102268        -2.608367
 H        -2.179229         1.659336        -1.759248
 H        -0.401878        -0.848849        -2.966267
 H         1.474721         0.545725        -2.186416
 H         0.386386         1.805210        -2.157447
 H         0.356372         1.888742         0.121635
 H         2.133618        -0.694243        -0.011719
