19
Iteration:  4418
 C        -1.915888        -1.799395        -0.902088
 C        -1.389899        -0.358465        -1.030953
 C        -2.192076         0.609874        -1.838725
 C        -0.716253         0.070096        -2.238757
 C         0.666571         0.634517        -1.881689
 C         0.556536         0.875458        -0.331551
 O        -0.647641         0.116954         0.129359
 C         1.672602         0.285417         0.546715
 O         2.444336         1.011096         1.145129
 H        -3.095233        -1.772419        -1.168360
 H        -1.262497        -2.416433        -1.519444
 H        -2.028080        -1.940349         0.176100
 H        -3.028835         0.120190        -2.376084
 H        -2.375836         1.660616        -1.636493
 H        -0.727715        -0.441226        -3.245792
 H         1.475122        -0.140135        -2.142575
 H         0.954056         1.466210        -2.480798
 H         0.312073         1.951629        -0.011625
 H         1.859550        -0.841186         0.361166
