19
Iteration:   111
 C        -1.805609        -1.875282        -0.873755
 C        -1.229333        -0.492848        -0.996707
 C        -2.089137         0.611081        -1.618780
 C        -0.683817         0.231540        -2.187972
 C         0.410201         1.163316        -1.689621
 C         0.299975         1.050736        -0.106588
 O        -0.658393         0.063718         0.186263
 C         1.533782         0.422564         0.686153
 O         2.690612         0.344055         0.235844
 H        -2.677073        -1.953766        -0.275436
 H        -2.080417        -2.217261        -1.902343
 H        -0.998652        -2.485301        -0.517287
 H        -2.965136         0.381880        -2.194536
 H        -2.202462         1.379677        -0.893544
 H        -0.677631        -0.183875        -3.214446
 H         1.369837         0.892742        -1.998394
 H         0.267992         2.078187        -1.999685
 H         0.057758         1.961877         0.379790
 H         1.175619        -0.230696         1.499446
