19
Iteration:  1070
 C        -1.450038        -1.925078        -0.744981
 C        -1.415148        -0.377231        -0.947043
 C        -2.172996         0.635042        -1.829620
 C        -0.624664         0.244536        -2.081027
 C         0.449734         1.121969        -1.528919
 C         0.294821         0.925556        -0.007611
 O        -0.971669         0.303461         0.171591
 C         1.601121         0.105301         0.467293
 O         2.670566         0.446797         0.173991
 H        -2.257313        -2.327431        -0.102328
 H        -1.500649        -2.426001        -1.764477
 H        -0.568635        -2.190742        -0.231629
 H        -2.764890         0.245447        -2.621475
 H        -2.367855         1.600694        -1.415787
 H        -0.695608        -0.189392        -3.073643
 H         1.454768         0.877904        -1.912145
 H         0.254211         2.060817        -1.871697
 H         0.580882         1.876411         0.523203
 H         1.485328        -0.800467         1.193624
