19
Iteration:  1778
 C        -1.441590        -1.881025        -0.736181
 C        -1.184584        -0.431014        -0.886471
 C        -2.154455         0.389462        -1.912435
 C        -0.604424         0.301318        -2.114995
 C         0.290820         1.490570        -1.558502
 C         0.299953         1.117944        -0.039969
 O        -0.826118         0.253475         0.243039
 C         1.493973         0.247077         0.477607
 O         2.591914         0.033275         0.133603
 H        -2.271764        -1.926403        -0.162402
 H        -1.461906        -2.400113        -1.674900
 H        -0.674181        -2.456764        -0.142726
 H        -2.927991        -0.050855        -2.542223
 H        -2.545932         1.288351        -1.383018
 H        -0.102988        -0.108653        -3.007120
 H         1.313331         1.573884        -2.092099
 H        -0.072625         2.544104        -1.465617
 H         0.199491         1.939991         0.596946
 H         0.901958        -0.327389         1.283911
