19
Iteration:  4552
 C        -2.215909        -1.762933        -1.044293
 C        -1.421738        -0.434485        -1.036877
 C        -1.828429         0.860555        -1.678781
 C        -0.601144         0.063213        -2.209367
 C         0.704107         0.542312        -1.700181
 C         0.388408         0.680082        -0.233801
 O        -0.622900        -0.301126         0.127484
 C         1.591964         0.467504         0.626291
 O         2.434048         1.311090         0.752993
 H        -3.201874        -1.535837        -0.802661
 H        -2.063433        -2.391508        -1.880999
 H        -1.657229        -2.308440        -0.200722
 H        -2.737439         0.805708        -2.245022
 H        -1.577414         1.775190        -1.168450
 H        -0.549671        -0.384439        -3.162370
 H         1.406260        -0.249349        -1.876327
 H         1.169004         1.478679        -2.135202
 H        -0.039410         1.745436        -0.147049
 H         1.870985        -0.590767         1.062250
