19
Iteration:   632
 C        -1.489182        -1.952371        -0.789415
 C        -1.315666        -0.428736        -0.936010
 C        -2.095371         0.468120        -1.757274
 C        -0.577861         0.287505        -2.047367
 C         0.389802         1.352362        -1.555706
 C         0.339419         1.054742        -0.064869
 O        -0.874539         0.372997         0.236957
 C         1.477913         0.218599         0.451597
 O         2.613079         0.143397         0.105897
 H        -2.251375        -2.233690        -0.060092
 H        -1.959859        -2.270430        -1.746460
 H        -0.666134        -2.527842        -0.472516
 H        -2.531797        -0.025733        -2.604056
 H        -2.609301         1.364208        -1.387410
 H        -0.355711        -0.161748        -3.045316
 H         1.449189         1.111255        -1.883434
 H        -0.129872         2.420907        -1.748289
 H         0.445765         1.916998         0.655835
 H         1.049277        -0.373318         1.382019
