19
Iteration:   613
 C        -1.543878        -1.880149        -0.891623
 C        -1.144833        -0.470117        -0.899181
 C        -2.138486         0.378039        -1.793883
 C        -0.666061         0.272813        -2.088882
 C         0.349268         1.376908        -1.598047
 C         0.343951         1.202382        -0.076184
 O        -0.873217         0.394630         0.292011
 C         1.533245         0.182390         0.552884
 O         2.648591         0.100503         0.132284
 H        -2.469205        -2.133395        -0.244135
 H        -1.969984        -2.238426        -1.957513
 H        -0.715207        -2.582321        -0.544379
 H        -2.917291        -0.192649        -2.376042
 H        -2.314011         1.312874        -1.205760
 H        -0.437672        -0.489971        -2.834769
 H         1.280429         1.091617        -1.976455
 H         0.071887         2.426172        -1.655736
 H         0.184375         2.129093         0.462239
 H         1.092693        -0.504210         1.272511
