19
Iteration:  2270charge 0 multiplicity 1
 C        -1.584591        -1.959885        -0.761181
 C        -1.293772        -0.404372        -0.933967
 C        -2.061795         0.459104        -1.806407
 C        -0.588321         0.337303        -2.115556
 C         0.288107         1.316464        -1.570025
 C         0.332063         1.008321        -0.029576
 O        -0.876015         0.273493         0.239402
 C         1.551970         0.157386         0.361583
 O         2.682076         0.310763         0.261846
 H        -2.570027        -1.986704        -0.411742
 H        -1.439572        -2.483020        -1.668345
 H        -0.830534        -2.369165        -0.006187
 H        -2.764967         0.203799        -2.556271
 H        -2.382264         1.408701        -1.392544
 H        -0.381694        -0.399829        -2.945081
 H         1.338348         1.170356        -2.038544
 H        -0.105640         2.295517        -1.948925
 H         0.403977         2.074442         0.459873
 H         1.118303        -0.747089         0.943714
