19
Iteration:  2970charge 0 multiplicity 1
 C        -1.534248        -1.906513        -0.740029
 C        -1.241499        -0.372831        -0.815771
 C        -2.044354         0.308797        -1.967316
 C        -0.455868         0.312932        -2.123293
 C         0.263983         1.484592        -1.502831
 C         0.356382         1.211731         0.008706
 O        -0.886336         0.305034         0.347761
 C         1.450482         0.159761         0.471740
 O         2.555496         0.050718         0.001396
 H        -2.494005        -2.374683        -0.351307
 H        -1.666769        -2.243390        -1.955057
 H        -0.656149        -2.561308        -0.462687
 H        -2.535850        -0.301559        -2.684971
 H        -2.473190         1.261591        -1.724995
 H        -0.048505        -0.356470        -2.913205
 H         1.285001         1.686132        -1.843283
 H        -0.186401         2.442711        -1.667515
 H         0.365932         2.100990         0.742043
 H         1.167045        -0.245804         1.490733
