19
Iteration:  3950charge 0 multiplicity 1
 C        -2.172760        -1.659262        -0.824282
 C        -1.351073        -0.460725        -1.087074
 C        -1.800084         0.680007        -1.922478
 C        -0.621264        -0.097259        -2.318267
 C         0.542129         0.706744        -1.871618
 C         0.328578         0.827158        -0.172230
 O        -0.602918        -0.155267         0.134050
 C         1.638768         0.434213         0.537920
 O         2.537726         1.117640         1.044245
 H        -3.311737        -1.481207        -0.746762
 H        -1.993953        -2.424923        -1.488125
 H        -1.950986        -1.971985         0.189813
 H        -2.846859         0.495775        -2.325300
 H        -1.809362         1.806378        -1.666925
 H        -0.530814        -0.683638        -3.289318
 H         1.454191         0.309770        -2.203211
 H         0.671083         1.703241        -2.227051
 H         0.010762         1.877024         0.308017
 H         1.595737        -0.704630         0.705218
