19
Iteration:  2474charge 0 multiplicity 1
 C        -1.548842        -1.928211        -0.919077
 C        -1.343848        -0.458822        -0.898950
 C        -2.149189         0.600850        -1.717774
 C        -0.703069         0.257819        -2.061759
 C         0.525879         1.076041        -1.616093
 C         0.270989         0.987715        -0.063923
 O        -0.838223         0.252267         0.260531
 C         1.523244         0.304522         0.511625
 O         2.698654         0.388216         0.170643
 H        -2.642939        -2.155864        -0.593322
 H        -1.480460        -2.230311        -1.904140
 H        -0.913808        -2.411441        -0.269513
 H        -2.748678         0.220375        -2.551212
 H        -2.417448         1.560175        -1.302718
 H        -0.654452        -0.259018        -3.047144
 H         1.540066         0.668720        -1.714414
 H         0.396563         2.111389        -2.110656
 H         0.060931         1.972545         0.554153
 H         1.199333        -0.315428         1.424572
