19
Iteration:  4739charge 0 multiplicity 1
 C        -1.936064        -1.862961        -0.982719
 C        -1.310151        -0.504770        -1.004484
 C        -1.977213         0.536725        -1.997751
 C        -0.497581         0.025391        -2.207011
 C         0.675241         0.824828        -1.710080
 C         0.245750         1.057774        -0.122867
 O        -0.826333         0.133098         0.184513
 C         1.443907         0.520167         0.757034
 O         2.667583         0.762007         0.706956
 H        -1.701456        -2.659570        -1.699796
 H        -1.607627        -2.359390        -0.018116
 H        -3.058345        -1.724613        -0.856021
 H        -2.694064         0.096529        -2.722227
 H        -2.297144         1.618931        -1.781452
 H        -0.321466        -0.582004        -3.211897
 H         1.494922         0.134964        -1.766416
 H         0.970539         1.698676        -2.428329
 H         0.090012         2.025146         0.177788
 H         0.949284        -0.236474         1.466646
