19
Iteration:  2201
 C        -1.517491        -1.929021        -0.698188
 C        -1.322851        -0.373152        -0.951859
 C        -2.089727         0.486202        -1.888504
 C        -0.619871         0.283328        -2.132736
 C         0.374225         1.297797        -1.506770
 C         0.310295         0.976912         0.035561
 O        -0.948949         0.312956         0.185000
 C         1.506209         0.051900         0.409524
 O         2.713904         0.365414         0.178059
 H        -1.872125        -1.970744         0.406469
 H        -2.122028        -2.392854        -1.494141
 H        -0.536003        -2.264014        -0.848363
 H        -2.661780         0.021627        -2.720364
 H        -2.584798         1.407229        -1.546738
 H        -0.137526        -0.353572        -2.809041
 H         1.353562         1.308378        -1.915220
 H         0.155059         2.365496        -1.412850
 H         0.363833         1.956567         0.790746
 H         1.114442        -0.970845         0.723331
