19
Iteration:  4049charge 0 multiplicity 1
 C        -1.979877        -1.832198        -0.881362
 C        -1.404160        -0.400833        -1.020085
 C        -1.958265         0.779775        -1.864592
 C        -0.654359         0.099429        -2.228128
 C         0.677451         0.636086        -1.765880
 C         0.354026         0.854777        -0.208685
 O        -0.625536        -0.101459         0.134448
 C         1.455906         0.464835         0.706643
 O         2.597881         0.979259         0.717151
 H        -1.790049        -2.414042        -1.876276
 H        -1.564840        -2.462377        -0.155658
 H        -3.139379        -1.759882        -0.771204
 H        -2.953251         0.644175        -2.372228
 H        -1.937179         1.832936        -1.480760
 H        -0.706140        -0.470590        -3.156331
 H         1.471297        -0.166158        -1.771113
 H         1.186979         1.496342        -2.191618
 H        -0.100167         1.869988         0.113226
 H         1.101615        -0.339728         1.386030
