19
Iteration:  1734
 C        -1.359784        -1.897403        -0.797387
 C        -1.296381        -0.365181        -0.948276
 C        -2.130815         0.443701        -1.853961
 C        -0.632032         0.291663        -2.065513
 C         0.397798         1.310419        -1.479396
 C         0.340539         1.038130         0.007992
 O        -0.946995         0.319968         0.257097
 C         1.503993         0.274776         0.580315
 O         2.527207         0.111924        -0.040632
 H        -2.217542        -2.249183        -0.419422
 H        -1.118883        -2.342103        -1.758292
 H        -0.544776        -2.403054        -0.208173
 H        -2.805071         0.003236        -2.576370
 H        -2.355256         1.450553        -1.484694
 H        -0.247202        -0.443887        -2.743966
 H         1.475417         1.253861        -1.876510
 H         0.118509         2.370882        -1.757264
 H         0.278632         2.011513         0.597294
 H         1.246286        -0.232436         1.622057
