19
Iteration:  4609charge 0 multiplicity 1
 C        -2.202801        -1.771216        -1.038933
 C        -1.458586        -0.447922        -1.078645
 C        -1.931229         0.775146        -1.820653
 C        -0.618569        -0.001954        -2.222433
 C         0.693689         0.578968        -1.766985
 C         0.350880         0.648800        -0.161843
 O        -0.658716        -0.248995         0.100686
 C         1.609918         0.608434         0.811365
 O         2.668840         1.246734         0.777513
 H        -2.535411        -2.114339        -0.136609
 H        -3.169250        -1.799071        -1.629418
 H        -1.578152        -2.636534        -1.312300
 H        -2.851750         0.858421        -2.448485
 H        -1.692899         1.662491        -1.203633
 H        -0.613692        -0.434146        -3.248579
 H         1.538313         0.036199        -2.095798
 H         0.774102         1.656865        -2.101623
 H         0.160734         1.757127        -0.032486
 H         1.502271        -0.138562         1.701867
