19
Iteration:   692
 C        -1.458661        -1.921256        -0.684638
 C        -1.373344        -0.390255        -0.902699
 C        -2.039946         0.456450        -1.965630
 C        -0.523677         0.309342        -2.063849
 C         0.411820         1.367708        -1.490201
 C         0.356415         0.969971         0.055647
 O        -1.040650         0.369801         0.305100
 C         1.535927         0.120477         0.451899
 O         2.581923         0.240862        -0.053691
 H        -2.315575        -2.134688         0.024237
 H        -1.888621        -2.245164        -1.690335
 H        -0.509665        -2.580085        -0.537946
 H        -2.737309        -0.002140        -2.656247
 H        -2.365328         1.437699        -1.606856
 H        -0.099513        -0.398513        -2.763931
 H         1.370405         1.211287        -1.930947
 H         0.291992         2.370551        -1.601672
 H         0.389304         1.735932         0.809061
 H         1.297099        -0.624593         1.309930
