19
Iteration:  2084
 C        -1.532794        -1.916743        -0.814685
 C        -1.317102        -0.401038        -0.958168
 C        -2.029650         0.542653        -1.815003
 C        -0.563888         0.245489        -2.076090
 C         0.438527         1.262105        -1.515199
 C         0.252372         1.047594        -0.039410
 O        -0.898229         0.229847         0.337688
 C         1.479323         0.203507         0.520061
 O         2.587242         0.326917         0.018654
 H        -2.457782        -2.186750        -0.423668
 H        -1.383425        -2.492312        -1.735334
 H        -0.689232        -2.412469        -0.100575
 H        -2.737141         0.097976        -2.525826
 H        -2.387860         1.466719        -1.322749
 H        -0.255492        -0.213069        -2.968810
 H         1.384117         0.794170        -1.975657
 H         0.442903         2.294912        -2.020698
 H         0.094921         1.947657         0.589235
 H         1.242335        -0.518569         1.353696
