19
Iteration:  3258charge 0 multiplicity 1
 C        -1.505590        -1.915815        -0.851054
 C        -1.325853        -0.326408        -0.926858
 C        -2.072239         0.480536        -1.906027
 C        -0.551601         0.192432        -2.151185
 C         0.456654         1.197376        -1.496580
 C         0.246312         1.036695         0.006940
 O        -0.899785         0.273809         0.230339
 C         1.494656         0.143357         0.551783
 O         2.577216         0.398183         0.157768
 H        -0.551465        -2.336537        -1.251032
 H        -1.698380        -2.118314         0.329952
 H        -2.513066        -2.239282        -1.226563
 H        -2.809450         0.129679        -2.653380
 H        -2.214326         1.547768        -1.561732
 H        -0.160037        -0.495220        -2.947455
 H         1.463304         0.820234        -1.671962
 H         0.336656         2.187616        -1.870613
 H         0.101104         1.981562         0.597250
 H         1.297535        -0.438288         1.508550
