19
Iteration:  3028charge 0 multiplicity 1
 C        -1.327660        -1.937305        -0.678920
 C        -1.287757        -0.364493        -0.940518
 C        -2.073040         0.539390        -1.992814
 C        -0.522757         0.357821        -2.026575
 C         0.362738         1.301915        -1.467029
 C         0.273580         1.020459         0.045841
 O        -0.950885         0.301950         0.251887
 C         1.472935         0.220361         0.500540
 O         2.465905         0.083624        -0.122220
 H        -2.226485        -2.440468        -0.457931
 H        -0.435449        -2.507952        -1.174531
 H        -0.923051        -1.918965         0.392230
 H        -2.738066         0.202289        -2.803955
 H        -2.557505         1.380517        -1.486666
 H        -0.148474        -0.209194        -2.863237
 H         1.441700         1.009488        -1.633669
 H         0.141519         2.420086        -1.582857
 H         0.137699         1.887879         0.856989
 H         1.282675        -0.170052         1.564783
