19
Iteration:  3974
 C        -2.169863        -1.762196        -0.954193
 C        -1.434508        -0.420745        -1.000249
 C        -1.984035         0.655161        -1.942467
 C        -0.608326        -0.053372        -2.187676
 C         0.685300         0.680249        -1.716121
 C         0.430145         0.895423        -0.248028
 O        -0.678370        -0.080727         0.167283
 C         1.671881         0.407511         0.492554
 O         2.570593         1.118230         0.959801
 H        -3.138970        -1.635447        -1.370583
 H        -1.675045        -2.478326        -1.540754
 H        -2.406085        -2.171981         0.082073
 H        -2.882759         0.421035        -2.505950
 H        -2.023854         1.727487        -1.723456
 H        -0.489961        -0.792461        -3.001929
 H         1.602923         0.216115        -1.893568
 H         0.921893         1.640593        -2.129143
 H         0.156641         1.858009         0.228887
 H         1.585836        -0.708076         0.710039
