19
Iteration:  4899charge 0 multiplicity 1
 C        -1.805658        -1.812112        -0.749285
 C        -1.275701        -0.439903        -1.122213
 C        -1.876923         0.361692        -2.184769
 C        -0.399863         0.038693        -2.199047
 C         0.626643         1.031446        -1.603220
 C         0.294349         1.034266        -0.067992
 O        -0.909650         0.227632         0.074746
 C         1.310690         0.478492         0.804189
 O         2.496727         0.554538         0.627443
 H        -1.728731        -1.933584         0.412221
 H        -2.733406        -1.817465        -1.187384
 H        -1.049356        -2.543234        -1.082180
 H        -2.405098        -0.191950        -2.942004
 H        -2.212781         1.362128        -1.920653
 H         0.111059        -0.835068        -2.741442
 H         1.667610         0.702238        -1.914944
 H         0.439090         2.072001        -1.977357
 H         0.091752         2.044298         0.234128
 H         0.942602        -0.191570         1.550015
