19
Iteration:  1481
 C        -1.598932        -1.881801        -0.743473
 C        -1.284840        -0.412997        -0.997497
 C        -2.059702         0.518340        -1.893011
 C        -0.624820         0.268239        -2.118543
 C         0.379168         1.249333        -1.509835
 C         0.303869         0.980758         0.021255
 O        -0.865878         0.214582         0.232333
 C         1.487361         0.235907         0.607768
 O         2.682674         0.361732         0.070341
 H        -1.964418        -2.162086         0.168820
 H        -2.291300        -2.337242        -1.526753
 H        -0.678493        -2.539247        -0.822498
 H        -2.805974        -0.017434        -2.501318
 H        -2.443165         1.458445        -1.499273
 H        -0.149587        -0.298789        -2.975087
 H         1.363875         1.047573        -1.881097
 H         0.273680         2.287329        -1.851690
 H         0.179345         1.872811         0.475794
 H         1.226791        -0.536130         1.358202
