19
Iteration:   184charge 0 multiplicity 1
 C        -1.625948        -1.964964        -0.934147
 C        -1.444640        -0.421322        -0.923640
 C        -2.111257         0.540242        -1.846737
 C        -0.652702         0.297008        -2.054324
 C         0.516770         1.189689        -1.539351
 C         0.352815         0.926916        -0.013060
 O        -0.908203         0.232856         0.290364
 C         1.630837         0.467569         0.664083
 O         2.681105         0.231830         0.035518
 H        -2.302121        -2.446927        -0.152033
 H        -2.243610        -2.156849        -1.770122
 H        -0.646910        -2.485766        -1.067682
 H        -2.827581         0.037162        -2.472227
 H        -2.602355         1.314436        -1.298360
 H        -0.409995        -0.117113        -3.024816
 H         1.500554         0.893833        -2.135434
 H         0.384199         2.393191        -1.769159
 H         0.286392         1.901721         0.605680
 H         1.509002         0.291637         1.825777
