19
Iteration:   882charge 0 multiplicity 1
 C        -1.517756        -1.843538        -0.734640
 C        -1.271758        -0.340313        -0.988574
 C        -2.241643         0.393993        -1.936982
 C        -0.644154         0.388374        -2.164857
 C         0.397207         1.315647        -1.493703
 C         0.238373         1.020548        -0.006944
 O        -0.875189         0.224658         0.216144
 C         1.656749         0.288067         0.596412
 O         2.700616         0.128963         0.124096
 H        -2.402946        -1.969272        -0.084589
 H        -1.841884        -2.274113        -1.766404
 H        -0.747504        -2.629113        -0.282590
 H        -2.767012        -0.357927        -2.583713
 H        -2.929101         1.199234        -1.502489
 H        -0.282081        -0.108753        -3.034004
 H         1.547900         1.108802        -1.681105
 H         0.290602         2.297256        -1.844275
 H         0.120629         1.860392         0.579598
 H         1.407421         0.025877         1.691728
