19
Iteration:  2664charge 0 multiplicity 1
 C        -1.542183        -1.880183        -0.870829
 C        -1.353745        -0.399603        -0.950062
 C        -2.171566         0.531825        -1.793483
 C        -0.755815         0.215307        -2.111698
 C         0.350272         1.248180        -1.657120
 C         0.392570         1.021071        -0.108895
 O        -0.844784         0.253696         0.280257
 C         1.553919         0.175883         0.484143
 O         2.778002         0.343591         0.341858
 H        -2.501107        -2.113618        -0.465834
 H        -1.415770        -2.385538        -1.849207
 H        -0.809163        -2.094622        -0.197850
 H        -2.965945        -0.063198        -2.314894
 H        -2.494532         1.483990        -1.347022
 H        -0.386801        -0.447216        -2.904202
 H         1.329264         1.034321        -2.160195
 H         0.241305         2.255123        -2.124382
 H         0.258203         1.926047         0.546684
 H         1.140283        -0.613186         1.155262
