19
Iteration:  3215
 C        -1.639729        -1.809970        -0.675961
 C        -1.303407        -0.422062        -1.047979
 C        -2.056469         0.359375        -1.954341
 C        -0.464146         0.269567        -2.173694
 C         0.274106         1.404960        -1.484569
 C         0.292277         0.998885         0.039379
 O        -0.903842         0.238563         0.219781
 C         1.553356         0.234221         0.562128
 O         2.705934         0.244367         0.142677
 H        -0.856375        -2.388750        -0.094184
 H        -2.731588        -2.190402        -0.272768
 H        -1.614091        -2.317599        -1.684987
 H        -2.707232        -0.160530        -2.679235
 H        -2.446278         1.379621        -1.668546
 H        -0.064085        -0.151716        -3.124961
 H         1.342132         1.404948        -1.746295
 H        -0.232788         2.394664        -1.558755
 H         0.306217         1.867149         0.656616
 H         1.306144        -0.499732         1.381104
