19
Iteration:  3855
 C        -2.160571        -1.771227        -1.035571
 C        -1.382480        -0.407221        -0.960720
 C        -1.852140         0.822194        -1.776899
 C        -0.685840         0.022265        -2.224441
 C         0.688671         0.364936        -1.848279
 C         0.480275         0.696346        -0.363486
 O        -0.585050        -0.076347         0.214196
 C         1.654386         0.507928         0.451967
 O         2.304741         1.286309         1.143278
 H        -2.062742        -2.214649        -0.031277
 H        -3.213246        -1.737450        -1.383997
 H        -1.570538        -2.584121        -1.728980
 H        -2.817309         0.887381        -2.270621
 H        -1.520659         1.774955        -1.307508
 H        -0.928564        -0.584817        -3.156732
 H         1.360053        -0.612661        -2.136591
 H         1.193364         1.283410        -2.331446
 H         0.240825         1.713823        -0.543845
 H         1.900347        -0.598722         0.487634
