19
Iteration:  4202charge 0 multiplicity 1
 C        -1.903168        -1.830035        -0.893968
 C        -1.427874        -0.365912        -1.035915
 C        -2.087915         0.621754        -2.011880
 C        -0.686886         0.132906        -2.204853
 C         0.612416         0.709259        -1.784626
 C         0.507567         0.812805        -0.176198
 O        -0.775455         0.027699         0.099629
 C         1.498048         0.483474         0.828663
 O         2.702201         0.866299         0.777596
 H        -2.872979        -1.927281        -1.275250
 H        -1.173380        -2.437792        -1.280824
 H        -1.948820        -2.021090         0.172377
 H        -2.743667         0.067149        -2.684404
 H        -2.168351         1.690163        -1.870209
 H        -0.627441        -0.579481        -3.023162
 H         1.439116         0.074891        -2.127938
 H         0.837977         1.658865        -2.294126
 H         0.101050         1.921712         0.134083
 H         1.193386        -0.025314         1.765613
