19
Iteration:  3526charge 0 multiplicity 1
 C        -1.723499        -1.868588        -0.938367
 C        -1.409707        -0.435076        -1.061692
 C        -2.119334         0.632616        -1.878428
 C        -0.648103         0.234385        -2.172534
 C         0.561587         0.895089        -1.597484
 C         0.312891         0.880974        -0.069289
 O        -0.834124         0.011228         0.167529
 C         1.580038         0.560848         0.786887
 O         2.696381         0.588919         0.420366
 H        -0.853517        -2.324650        -0.336719
 H        -2.670940        -1.958700        -0.447030
 H        -1.705148        -2.397112        -1.989016
 H        -2.749617         0.314037        -2.730992
 H        -2.349316         1.612238        -1.412573
 H        -0.515412        -0.261043        -3.180975
 H         1.411763         0.281550        -1.836689
 H         0.772338         1.777957        -2.187303
 H        -0.038460         1.910459         0.280392
 H         1.262134         0.127737         1.804436
