19
Iteration:   916
 C        -1.470740        -1.929323        -0.819370
 C        -1.342500        -0.390179        -0.890918
 C        -2.025032         0.655587        -1.808155
 C        -0.562442         0.142604        -2.064705
 C         0.436057         1.211107        -1.529296
 C         0.256932         1.028211        -0.044332
 O        -0.848726         0.234347         0.262611
 C         1.473728         0.299421         0.571821
 O         2.514760         0.263957         0.018851
 H        -2.460681        -2.287638        -0.405172
 H        -1.543835        -2.203859        -1.965890
 H        -0.529368        -2.441698        -0.386435
 H        -2.816861         0.338057        -2.529929
 H        -2.262706         1.645842        -1.298604
 H        -0.321985        -0.532402        -2.904359
 H         1.466018         1.029333        -1.881152
 H         0.084700         2.117609        -1.901121
 H         0.236857         1.943250         0.426005
 H         1.298678        -0.305765         1.551922
