19
Iteration:  3590
 C        -1.968907        -1.876952        -0.957655
 C        -1.340438        -0.451050        -1.049831
 C        -1.885672         0.692828        -1.795756
 C        -0.544415         0.108828        -2.180191
 C         0.617863         0.906944        -1.647498
 C         0.260035         0.902819        -0.143853
 O        -0.686870        -0.199969         0.242713
 C         1.394683         0.679810         0.688123
 O         2.609386         0.700716         0.446221
 H        -1.575713        -2.418836        -1.949714
 H        -1.778423        -2.364492        -0.006245
 H        -3.137902        -1.749460        -1.090552
 H        -2.727400         0.562645        -2.470222
 H        -1.746817         1.684612        -1.344786
 H        -0.330859        -0.309624        -3.200313
 H         1.528034         0.386893        -1.630518
 H         0.724559         1.902901        -2.046874
 H        -0.094418         1.871871         0.294935
 H         0.993228         0.343312         1.659986
