19
Iteration:  1552charge 0 multiplicity 1
 C        -1.529466        -1.872471        -0.854162
 C        -1.274705        -0.381890        -0.885725
 C        -2.033661         0.435785        -1.810560
 C        -0.566577         0.245435        -2.041430
 C         0.332421         1.299898        -1.539604
 C         0.323770         1.012434        -0.066677
 O        -0.859414         0.300503         0.262014
 C         1.464883         0.152552         0.422073
 O         2.636075         0.310421         0.150750
 H        -2.505694        -2.127910        -0.191655
 H        -1.585419        -2.370237        -1.808766
 H        -0.805808        -2.306846        -0.166421
 H        -2.775344        -0.114709        -2.417670
 H        -2.472162         1.307381        -1.345174
 H        -0.362107        -0.340197        -2.893783
 H         1.314577         1.332184        -2.037325
 H         0.095169         2.315350        -1.810805
 H         0.234952         1.909969         0.558201
 H         0.844528        -0.592241         1.012000
