19
Iteration:   351charge 0 multiplicity 1
 C        -1.530809        -1.893713        -0.583389
 C        -1.317250        -0.464417        -0.998414
 C        -2.071240         0.421811        -1.910117
 C        -0.582327         0.397735        -2.140605
 C         0.388283         1.449904        -1.489161
 C         0.382983         0.961326        -0.046787
 O        -0.863620         0.324834         0.185940
 C         1.469075         0.046693         0.459762
 O         2.592013         0.248303         0.096754
 H        -2.081997        -1.961089         0.334774
 H        -2.137549        -2.465722        -1.345209
 H        -0.629864        -2.378179        -0.295614
 H        -2.575389        -0.224371        -2.672219
 H        -2.720828         1.181735        -1.388523
 H        -0.462710         0.136584        -3.174212
 H         1.527005         1.311633        -1.871131
 H         0.007609         2.511091        -1.516671
 H         0.380883         1.782703         0.717296
 H         1.178976        -0.610667         1.371904
