19
Iteration:  3611
 C        -2.069774        -1.827742        -0.895111
 C        -1.307446        -0.458513        -1.111300
 C        -1.934420         0.669833        -1.847002
 C        -0.611072         0.149881        -2.285573
 C         0.594612         0.885575        -1.633809
 C         0.289100         0.892298        -0.132648
 O        -0.567269        -0.223973         0.073784
 C         1.469800         0.654664         0.895382
 O         2.650767         0.756160         0.528273
 H        -2.140228        -2.502837        -1.865907
 H        -1.602184        -2.446478        -0.169746
 H        -3.117023        -1.628164        -0.498936
 H        -2.795738         0.393821        -2.435067
 H        -2.055678         1.659046        -1.411083
 H        -0.595373        -0.514029        -3.180012
 H         1.565792         0.442461        -1.781915
 H         0.466137         1.840688        -2.089775
 H        -0.397002         1.829886         0.145800
 H         1.189854         0.303359         1.968603
