19
Iteration:  4648
 C        -2.163711        -1.749667        -0.979005
 C        -1.363042        -0.490049        -1.048806
 C        -1.909321         0.659013        -1.909366
 C        -0.544552         0.052827        -2.211050
 C         0.686773         0.689393        -1.652487
 C         0.281851         0.839422        -0.192440
 O        -0.595134        -0.158270         0.209698
 C         1.478040         0.566949         0.740346
 O         2.591535         1.043901         0.670237
 H        -1.883245        -2.339779        -0.019907
 H        -3.156458        -1.453097        -1.144059
 H        -1.903751        -2.272525        -1.950328
 H        -2.770672         0.393796        -2.503552
 H        -1.983525         1.626299        -1.480481
 H        -0.438499        -0.469213        -3.106315
 H         1.586720         0.045464        -1.834712
 H         1.010206         1.647056        -2.079306
 H        -0.256545         1.734252        -0.090914
 H         1.276955        -0.400948         1.373283
