19
Iteration:   223charge 0 multiplicity 1
 C        -1.587827        -1.843738        -0.784024
 C        -1.279118        -0.377441        -0.914227
 C        -2.020258         0.554032        -1.857984
 C        -0.595018         0.258131        -2.148822
 C         0.342756         1.275500        -1.546205
 C         0.338253         1.075918        -0.027753
 O        -0.735649         0.110623         0.263296
 C         1.444352         0.238372         0.536926
 O         2.581815         0.250136         0.097867
 H        -2.364278        -1.997098         0.028003
 H        -2.110087        -2.373116        -1.656275
 H        -0.669255        -2.453477        -0.592067
 H        -2.936638         0.030468        -2.200488
 H        -2.405078         1.576951        -1.466001
 H        -0.286795        -0.316234        -3.012263
 H         1.340091         1.308876        -1.869332
 H        -0.033399         2.225572        -1.731829
 H         0.042356         1.983969         0.465426
 H         1.178627        -0.446352         1.347419
