19
Iteration:  4630charge 0 multiplicity 1
 C        -2.179282        -1.758417        -1.093590
 C        -1.354166        -0.438253        -0.999159
 C        -1.856290         0.724122        -1.816303
 C        -0.658890        -0.064619        -2.258347
 C         0.613516         0.664920        -1.736613
 C         0.431305         0.811575        -0.170628
 O        -0.658105        -0.212005         0.167877
 C         1.546500         0.545520         0.789424
 O         2.596444         1.145636         0.724092
 H        -2.178043        -2.242884        -0.205192
 H        -3.235502        -1.587748        -1.375898
 H        -1.791841        -2.592219        -1.721232
 H        -2.754848         0.469590        -2.406241
 H        -1.685477         1.784759        -1.584103
 H        -0.556381        -0.771589        -3.107730
 H         1.514560         0.125080        -1.907436
 H         0.796941         1.669669        -2.242685
 H         0.072857         1.880396         0.228248
 H         1.307119         0.003817         1.681123
