19
Iteration:  1990
 C        -1.481600        -1.873979        -0.740513
 C        -1.299731        -0.416959        -0.946962
 C        -2.043524         0.525740        -1.887528
 C        -0.591496         0.278188        -2.142215
 C         0.404719         1.248919        -1.556763
 C         0.304905         0.989551         0.033057
 O        -0.938741         0.265709         0.251448
 C         1.468069         0.187558         0.553701
 O         2.613269         0.314863         0.077627
 H        -1.951008        -2.099275         0.265433
 H        -2.099428        -2.275265        -1.575296
 H        -0.570892        -2.447945        -0.910433
 H        -2.821727         0.010772        -2.407161
 H        -2.477778         1.445614        -1.500686
 H        -0.264484        -0.454466        -2.941348
 H         1.483675         1.195849        -1.766857
 H         0.065365         2.343335        -1.756042
 H         0.359713         1.891170         0.533405
 H         1.348082        -0.678579         1.227127
