19
Iteration:  3422charge 0 multiplicity 1
 C        -1.807343        -1.925080        -0.843306
 C        -1.389771        -0.391439        -1.058528
 C        -2.046498         0.573888        -1.952480
 C        -0.542902         0.200899        -2.177876
 C         0.520667         1.074791        -1.470181
 C         0.304384         0.839967         0.007709
 O        -0.957905         0.120715         0.215320
 C         1.592574         0.304331         0.663251
 O         2.737636         0.680893         0.260504
 H        -2.859902        -2.010445        -0.435797
 H        -1.588513        -2.542289        -1.851670
 H        -1.031954        -2.237848        -0.169307
 H        -2.768786         0.157212        -2.676386
 H        -2.137121         1.671551        -1.784865
 H        -0.338617        -0.589120        -2.926440
 H         1.458215         0.544280        -1.744024
 H         0.580616         2.143786        -1.745787
 H         0.193602         1.849623         0.389084
 H         1.445894        -0.446158         1.502064
