19
Iteration:  2813
 C        -1.626409        -1.868531        -0.695228
 C        -1.274835        -0.448620        -1.059964
 C        -2.089608         0.343162        -1.897945
 C        -0.620142         0.417154        -2.122097
 C         0.315525         1.370096        -1.509609
 C         0.380630         0.974692        -0.091146
 O        -0.815373         0.213240         0.235435
 C         1.488137         0.254320         0.569258
 O         2.682767         0.232512         0.138054
 H        -2.680692        -1.747597        -0.200229
 H        -1.555178        -2.506994        -1.566698
 H        -0.910992        -2.220221         0.142182
 H        -2.726639        -0.120387        -2.662305
 H        -2.606574         1.246096        -1.507309
 H        -0.189617        -0.101266        -2.984444
 H         1.323796         1.257510        -1.837525
 H        -0.048987         2.317586        -1.583799
 H         0.457879         2.010975         0.583040
 H         1.187829        -0.294838         1.504296
