19
Iteration:   132charge 0 multiplicity 1
 C        -1.656156        -1.939257        -0.841343
 C        -1.329762        -0.422646        -0.917567
 C        -2.093808         0.683344        -1.694110
 C        -0.682385         0.316109        -2.109962
 C         0.506870         1.147851        -1.621128
 C         0.330867         1.046021        -0.146166
 O        -0.653187         0.000340         0.240469
 C         1.420640         0.346546         0.582471
 O         2.567793         0.348969         0.154694
 H        -2.443981        -2.099092        -0.198962
 H        -1.996432        -2.392663        -1.729957
 H        -0.834591        -2.499921        -0.476277
 H        -2.820213         0.479333        -2.457364
 H        -2.238274         1.673746        -1.344487
 H        -0.497828        -0.284034        -3.017404
 H         1.455784         0.768895        -1.989106
 H         0.455873         2.123261        -1.889780
 H         0.152208         1.963330         0.391354
 H         1.186798         0.021899         1.552981
