19
Iteration:  3984charge 0 multiplicity 1
 C        -2.158086        -1.803347        -1.002621
 C        -1.450339        -0.414480        -1.038148
 C        -1.980126         0.649161        -1.896371
 C        -0.620572        -0.026743        -2.163703
 C         0.701427         0.679315        -1.639527
 C         0.445052         0.819553        -0.142791
 O        -0.688865         0.038328         0.119526
 C         1.698880         0.369172         0.481581
 O         2.520680         1.124048         0.890058
 H        -3.059352        -1.822278        -1.646831
 H        -1.545537        -2.575889        -1.320207
 H        -2.307014        -1.969709         0.119833
 H        -2.801927         0.200868        -2.502843
 H        -2.075898         1.703087        -1.488839
 H        -0.474042        -0.614245        -3.110692
 H         1.381174        -0.134712        -1.820646
 H         0.896503         1.526819        -2.228474
 H         0.350545         2.006429         0.032339
 H         1.701181        -0.683625         0.844859
