19
Iteration:  2681charge 0 multiplicity 1
 C        -1.574221        -1.844806        -0.760910
 C        -1.323299        -0.355815        -0.909081
 C        -2.190767         0.457680        -1.790897
 C        -0.626610         0.266133        -2.186667
 C         0.269859         1.271320        -1.660007
 C         0.325008         1.025180        -0.110900
 O        -0.722408         0.184643         0.201519
 C         1.500424         0.214366         0.499356
 O         2.764344         0.292166         0.347954
 H        -2.610143        -2.084923        -0.272701
 H        -1.637047        -2.185867        -1.792531
 H        -0.837300        -2.572875        -0.188604
 H        -2.905802         0.088311        -2.510686
 H        -2.276280         1.488276        -1.479054
 H        -0.527303        -0.294240        -3.125384
 H         1.307713         1.243339        -2.036788
 H        -0.068960         2.346194        -1.667549
 H         0.237446         2.020382         0.355923
 H         1.096595        -0.602833         1.150175
