19
Iteration:  4400charge 0 multiplicity 1
 C        -1.885963        -1.801181        -0.850444
 C        -1.385734        -0.364393        -1.015978
 C        -2.096760         0.582427        -1.856869
 C        -0.760676         0.110363        -2.316457
 C         0.603934         0.618052        -1.848465
 C         0.441766         0.874863        -0.307567
 O        -0.723858         0.167581         0.102458
 C         1.764841         0.374972         0.413378
 O         2.482224         0.922267         1.210965
 H        -2.701765        -1.921309        -1.506073
 H        -1.117362        -2.496120        -1.221924
 H        -2.207121        -1.975693         0.256627
 H        -2.937410         0.338034        -2.504411
 H        -2.285461         1.554125        -1.382126
 H        -0.715899        -0.767168        -3.022862
 H         1.305321        -0.173856        -1.948044
 H         1.014760         1.590159        -2.294320
 H         0.452331         1.914279        -0.172667
 H         1.885823        -0.733841         0.389253
