19
Iteration:  3816charge 0 multiplicity 1
 C        -2.257554        -1.742004        -0.800466
 C        -1.443710        -0.447380        -1.152772
 C        -1.926641         0.798742        -1.843320
 C        -0.692381         0.162789        -2.320381
 C         0.770831         0.437530        -1.824690
 C         0.490776         0.633610        -0.303104
 O        -0.501026        -0.264324         0.046080
 C         1.695629         0.465135         0.583472
 O         2.345252         1.361738         1.121002
 H        -2.102575        -1.937282         0.233384
 H        -3.377743        -1.514505        -0.842003
 H        -1.919676        -2.533527        -1.345682
 H        -2.806833         0.691992        -2.441920
 H        -1.969418         1.739676        -1.338282
 H        -0.560733        -0.373712        -3.239141
 H         1.433895        -0.301422        -2.122207
 H         1.170807         1.379653        -2.208151
 H         0.127344         1.683169        -0.035908
 H         1.865033        -0.592629         0.812792
