19
Iteration:  3543charge 0 multiplicity 1
 C        -1.779358        -1.919500        -1.037923
 C        -1.384564        -0.411891        -1.009652
 C        -2.062542         0.646139        -1.908449
 C        -0.676530         0.222683        -2.187068
 C         0.629074         0.820855        -1.511013
 C         0.260360         0.913885        -0.084289
 O        -0.848956         0.016162         0.234574
 C         1.562446         0.569750         0.722387
 O         2.717107         0.628028         0.381692
 H        -0.842624        -2.490215        -1.032323
 H        -2.414338        -2.125810        -0.133145
 H        -2.315248        -2.109453        -1.906377
 H        -2.766297         0.165961        -2.566288
 H        -2.412087         1.567882        -1.514428
 H        -0.407495        -0.383630        -3.016619
 H         1.474472         0.087854        -1.646762
 H         0.963703         1.872670        -1.631123
 H        -0.017893         2.008913         0.173815
 H         1.267510         0.484223         1.800513
