19
Iteration:  2796charge 0 multiplicity 1
 C        -1.655489        -1.914421        -0.744487
 C        -1.244787        -0.423599        -0.904723
 C        -2.077687         0.466101        -1.901850
 C        -0.530911         0.211248        -2.120709
 C         0.411232         1.395135        -1.534461
 C         0.293598         1.051295         0.038276
 O        -0.879860         0.222372         0.237727
 C         1.500987         0.226055         0.519680
 O         2.677939         0.290006         0.074564
 H        -2.523182        -2.055750        -0.174504
 H        -1.769998        -2.415398        -1.765661
 H        -0.948734        -2.483487        -0.237415
 H        -2.718945        -0.114104        -2.578822
 H        -2.504740         1.411803        -1.565022
 H        -0.404858        -0.329930        -3.054262
 H         1.524262         1.287667        -1.872489
 H        -0.124600         2.442012        -1.764938
 H         0.064129         1.854038         0.609939
 H         1.284418        -0.450626         1.373611
