19
Iteration:   978charge 0 multiplicity 1
 C        -1.667244        -1.821873        -0.736448
 C        -1.372933        -0.420883        -1.060249
 C        -2.138688         0.434827        -1.994824
 C        -0.608756         0.314009        -2.166534
 C         0.341024         1.313558        -1.496434
 C         0.334858         0.958902         0.010535
 O        -0.858213         0.137180         0.267930
 C         1.672280         0.325551         0.634746
 O         2.749336         0.251248         0.125203
 H        -2.279448        -1.809087         0.116763
 H        -2.187020        -2.218811        -1.561812
 H        -0.804955        -2.473804        -0.486633
 H        -2.749233        -0.240565        -2.619099
 H        -2.647097         1.347230        -1.612137
 H        -0.184452        -0.315402        -2.916246
 H         1.395044         1.277265        -1.984998
 H        -0.033835         2.420312        -1.482572
 H         0.070712         1.990698         0.501545
 H         1.446464         0.036291         1.650081
