19
Iteration:  4386charge 0 multiplicity 1
 C        -1.836076        -1.854852        -0.782786
 C        -1.433739        -0.460541        -1.022538
 C        -2.066561         0.729995        -1.918271
 C        -0.718883         0.030861        -2.262319
 C         0.569813         0.669929        -1.817111
 C         0.451805         0.951298        -0.345690
 O        -0.689624         0.177194         0.126927
 C         1.716282         0.311462         0.452615
 O         2.450362         0.907109         1.168169
 H        -2.579036        -2.189738        -1.648568
 H        -1.087068        -2.617136        -0.699561
 H        -2.393426        -2.054023         0.167542
 H        -2.961691         0.503618        -2.491698
 H        -1.921017         1.728989        -1.523448
 H        -0.700065        -0.384844        -3.319479
 H         1.323092        -0.102904        -2.038770
 H         0.835066         1.534177        -2.414284
 H         0.205937         1.895601        -0.049055
 H         1.919080        -0.695141        -0.126681
