19
Iteration:  2364charge 0 multiplicity 1
 C        -1.615285        -1.908922        -0.857686
 C        -1.315843        -0.413138        -0.917297
 C        -2.010381         0.574179        -1.846216
 C        -0.562356         0.197341        -2.092305
 C         0.493997         1.120066        -1.526012
 C         0.259997         1.007365         0.029860
 O        -0.891780         0.230494         0.321950
 C         1.557125         0.223781         0.552659
 O         2.557501         0.447584         0.007671
 H        -2.104258        -2.273183         0.201498
 H        -2.405217        -2.004094        -1.616772
 H        -0.858438        -2.488110        -1.301151
 H        -2.670073         0.034604        -2.542162
 H        -2.572914         1.501913        -1.647646
 H        -0.232681        -0.368975        -2.986918
 H         1.547280         0.983362        -1.671797
 H         0.320362         2.163812        -1.926384
 H         0.163430         1.817331         0.760060
 H         1.476717        -0.334664         1.530581
