19
Iteration:  4779
 C        -1.817524        -1.837368        -0.707789
 C        -1.319022        -0.421508        -1.161439
 C        -1.907540         0.604253        -2.138006
 C        -0.487691        -0.010541        -2.261803
 C         0.580786         0.959165        -1.726644
 C         0.316860         0.884920        -0.169939
 O        -0.833500         0.100860         0.153719
 C         1.389281         0.420357         0.886229
 O         2.559760         0.726816         0.661675
 H        -2.522176        -2.413424        -1.479834
 H        -0.999571        -2.494321        -0.610569
 H        -2.470791        -1.687745         0.205748
 H        -2.567109         0.152855        -2.837356
 H        -1.973181         1.637134        -1.857247
 H        -0.345744        -0.584375        -3.175980
 H         1.582683         0.498088        -1.713854
 H         0.538377         1.984495        -2.088835
 H        -0.047231         1.963237         0.183360
 H         1.128879         0.001240         1.879522
