19
Iteration:  3881charge 0 multiplicity 1
 C        -2.122772        -1.754734        -0.947777
 C        -1.432758        -0.378655        -1.021151
 C        -1.927178         0.793964        -1.840324
 C        -0.718977        -0.040768        -2.251471
 C         0.671553         0.394778        -1.820620
 C         0.465975         0.812871        -0.235204
 O        -0.583233        -0.113425         0.035433
 C         1.738029         0.482870         0.493152
 O         2.384324         1.255079         1.182333
 H        -2.423445        -2.045180         0.069024
 H        -3.065277        -1.754396        -1.646883
 H        -1.458847        -2.544954        -1.282188
 H        -2.884291         0.832819        -2.342055
 H        -1.799795         1.717216        -1.334794
 H        -0.894316        -0.710809        -3.039474
 H         1.406660        -0.424776        -1.883224
 H         1.020632         1.124163        -2.601797
 H         0.228782         1.956579        -0.182353
 H         1.974749        -0.634166         0.460867
