19
Iteration:  4548
 C        -2.223476        -1.797490        -1.034008
 C        -1.443925        -0.460913        -1.026924
 C        -1.802853         0.854762        -1.721370
 C        -0.624625         0.077458        -2.200722
 C         0.686248         0.550354        -1.722320
 C         0.420872         0.669540        -0.191749
 O        -0.614938        -0.274034         0.142278
 C         1.595021         0.456377         0.610080
 O         2.451234         1.330736         0.770183
 H        -3.350170        -1.470970        -0.925949
 H        -2.039764        -2.385166        -1.960682
 H        -1.682106        -2.265407        -0.262112
 H        -2.755256         0.932437        -2.263082
 H        -1.484496         1.742549        -1.164358
 H        -0.496532        -0.422068        -3.217816
 H         1.389932        -0.329243        -2.009765
 H         1.027860         1.495916        -2.093200
 H        -0.105001         1.670279        -0.057947
 H         1.835283        -0.577168         1.009903
