19
Iteration:  1591
 C        -1.400870        -1.857702        -0.738270
 C        -1.396589        -0.392796        -0.922762
 C        -2.060371         0.517455        -1.917699
 C        -0.635382         0.300315        -2.051560
 C         0.418792         1.189693        -1.430786
 C         0.304916         0.921270         0.033162
 O        -1.015217         0.348593         0.221780
 C         1.502413         0.097896         0.416040
 O         2.640266         0.353863         0.030292
 H        -2.267638        -2.051568        -0.231870
 H        -1.155051        -2.493014        -1.635225
 H        -0.547306        -2.091150         0.001252
 H        -2.671262         0.033478        -2.655701
 H        -2.509796         1.413817        -1.502971
 H        -0.255174        -0.331756        -2.866239
 H         1.487156         1.103629        -1.812943
 H         0.190194         2.297353        -1.617002
 H         0.406903         1.839470         0.744721
 H         1.517693        -0.782803         1.068566
