19
Iteration:  3429
 C        -1.794232        -1.893400        -0.864464
 C        -1.374367        -0.385397        -1.073840
 C        -2.117420         0.568146        -1.975714
 C        -0.527975         0.179079        -2.190896
 C         0.535710         1.082516        -1.531784
 C         0.310074         0.768143        -0.027196
 O        -0.953412         0.120009         0.266539
 C         1.627513         0.359540         0.656917
 O         2.722488         0.658728         0.308710
 H        -2.666322        -1.949911        -0.309771
 H        -1.904397        -2.426831        -1.774408
 H        -0.975185        -2.268044        -0.197957
 H        -2.887989         0.197095        -2.698793
 H        -2.281868         1.610790        -1.639242
 H        -0.265902        -0.636087        -2.938480
 H         1.599114         0.705579        -1.774622
 H         0.585643         2.225867        -1.617691
 H         0.211838         1.736397         0.511417
 H         1.371694        -0.306356         1.510285
