19
Iteration:  1764charge 0 multiplicity 1
 C        -1.427063        -1.919360        -0.767883
 C        -1.142839        -0.418184        -0.972182
 C        -2.051546         0.405859        -1.777119
 C        -0.615907         0.343370        -2.101985
 C         0.231467         1.455594        -1.546514
 C         0.326938         1.148487        -0.080123
 O        -0.843173         0.288245         0.284559
 C         1.394757         0.243943         0.468847
 O         2.586640         0.030348         0.125998
 H        -2.501145        -2.126304        -0.432349
 H        -1.421839        -2.403938        -1.804976
 H        -0.710943        -2.433231        -0.068533
 H        -2.681391        -0.117936        -2.476507
 H        -2.317328         1.385906        -1.445407
 H        -0.323808        -0.358611        -2.851181
 H         1.222154         1.350772        -1.884153
 H        -0.161745         2.344626        -1.940343
 H         0.313694         1.976506         0.512297
 H         1.102155        -0.349486         1.335193
