19
Iteration:   428
 C        -1.476693        -1.831819        -0.751792
 C        -1.248239        -0.372414        -0.927674
 C        -2.086806         0.467538        -1.788992
 C        -0.531776         0.276284        -2.121885
 C         0.377554         1.222701        -1.526031
 C         0.288757         1.036463        -0.008756
 O        -0.911656         0.351045         0.288090
 C         1.438262         0.119118         0.432357
 O         2.577990         0.243343         0.035876
 H        -2.407005        -2.205846        -0.241780
 H        -1.435927        -2.226336        -1.848703
 H        -0.567640        -2.187033        -0.257194
 H        -2.762591        -0.156777        -2.422038
 H        -2.290675         1.466958        -1.295316
 H        -0.281009        -0.392524        -2.920487
 H         1.575556         1.027905        -1.730281
 H         0.096828         2.272660        -1.776806
 H         0.261575         1.962565         0.623877
 H         1.015838        -0.597692         1.184099
