19
Iteration:   845charge 0 multiplicity 1
 C        -1.474704        -1.948564        -0.724543
 C        -1.222602        -0.406928        -0.934717
 C        -2.086873         0.518833        -1.904874
 C        -0.584116         0.283216        -2.166295
 C         0.257497         1.395388        -1.601559
 C         0.298658         1.028747        -0.076532
 O        -0.830070         0.299022         0.257979
 C         1.505175         0.191207         0.533956
 O         2.611501         0.119546         0.177347
 H        -2.103735        -2.055463         0.167659
 H        -2.023728        -2.225192        -1.571848
 H        -0.557863        -2.545352        -0.648057
 H        -2.920587         0.069724        -2.390617
 H        -2.312428         1.456150        -1.485558
 H        -0.287022        -0.349714        -3.044366
 H         1.290286         1.493398        -1.977165
 H        -0.379677         2.382963        -1.438912
 H         0.305869         1.984753         0.486516
 H         1.177437        -0.172780         1.616278
