19
Iteration:  3942
 C        -2.202171        -1.664080        -0.765153
 C        -1.353933        -0.468810        -1.082416
 C        -1.890150         0.730838        -1.912036
 C        -0.586258        -0.102191        -2.356782
 C         0.599908         0.732761        -1.816562
 C         0.406547         0.854385        -0.226512
 O        -0.609514        -0.189554         0.071657
 C         1.662049         0.410106         0.529792
 O         2.470409         1.127717         1.044695
 H        -3.196716        -1.356865        -0.638866
 H        -2.086911        -2.479448        -1.457860
 H        -1.800103        -2.113635         0.221836
 H        -2.845909         0.452624        -2.310143
 H        -1.576368         1.699679        -1.563047
 H        -0.556412        -0.731917        -3.271420
 H         1.561012         0.261723        -1.932014
 H         0.474628         1.753509        -2.168915
 H         0.075418         1.769778         0.211343
 H         1.558294        -0.685738         0.810740
