19
Iteration:  1054charge 0 multiplicity 1
 C        -1.517269        -1.890198        -0.822614
 C        -1.358847        -0.431020        -0.962973
 C        -2.130882         0.524720        -1.822099
 C        -0.648086         0.283173        -2.095618
 C         0.517628         1.122864        -1.544914
 C         0.338917         0.987322         0.015010
 O        -0.944764         0.313763         0.299610
 C         1.530916         0.181199         0.428422
 O         2.639845         0.417846         0.137337
 H        -2.273481        -2.095155        -0.039134
 H        -1.616527        -2.373542        -1.761802
 H        -0.585007        -2.353368        -0.355886
 H        -2.885240         0.212056        -2.597317
 H        -2.458527         1.401884        -1.208091
 H        -0.294640        -0.379063        -2.893306
 H         1.522063         0.596258        -1.802479
 H         0.513833         2.300637        -1.853419
 H         0.091049         1.967931         0.538840
 H         1.076905        -0.825927         0.829333
