19
Iteration:   818charge 0 multiplicity 1
 C        -1.373071        -1.869182        -0.803654
 C        -1.323938        -0.318934        -0.918571
 C        -2.135432         0.498762        -1.884139
 C        -0.504326         0.186364        -2.030531
 C         0.385292         1.302477        -1.566630
 C         0.290040         1.132430        -0.001768
 O        -0.881235         0.288305         0.322065
 C         1.379077         0.149799         0.462270
 O         2.589000         0.183678         0.058728
 H        -1.941377        -2.068978         0.097179
 H        -1.857227        -2.291436        -1.748147
 H        -0.369375        -2.298659        -0.677245
 H        -2.909551        -0.037338        -2.519244
 H        -2.504154         1.500760        -1.480913
 H        -0.231620        -0.446865        -2.832384
 H         1.408130         0.949833        -1.703053
 H         0.167346         2.274796        -1.837529
 H         0.281542         2.115236         0.610019
 H         1.020958        -0.742875         1.103439
