19
Iteration:   113charge 0 multiplicity 1
 C        -1.790797        -1.889806        -0.867000
 C        -1.224324        -0.492154        -0.997954
 C        -2.083270         0.636019        -1.630387
 C        -0.681710         0.228046        -2.157422
 C         0.410211         1.152320        -1.681644
 C         0.322037         1.050857        -0.105122
 O        -0.657220         0.062307         0.175001
 C         1.526023         0.419364         0.681833
 O         2.669350         0.346532         0.227664
 H        -2.727951        -1.915245        -0.244370
 H        -2.097453        -2.207046        -1.974239
 H        -0.941028        -2.517680        -0.479012
 H        -2.997909         0.340046        -2.188128
 H        -2.209152         1.379971        -0.876496
 H        -0.686409        -0.163486        -3.194401
 H         1.357163         0.879861        -2.020289
 H         0.229761         2.168593        -2.052709
 H         0.051602         1.988937         0.359406
 H         1.108309        -0.270422         1.510010
