19
Iteration:  2187
 C        -1.522685        -1.869867        -0.732617
 C        -1.266283        -0.450619        -0.992732
 C        -2.046782         0.471462        -1.880394
 C        -0.544457         0.279670        -2.093961
 C         0.300984         1.397824        -1.516811
 C         0.310472         1.002149        -0.042552
 O        -0.882770         0.288430         0.268871
 C         1.448381         0.070878         0.367726
 O         2.665301         0.316438         0.211387
 H        -1.918888        -2.033489         0.341821
 H        -2.350170        -2.357261        -1.320707
 H        -0.712710        -2.580814        -0.717450
 H        -2.780718         0.007882        -2.528556
 H        -2.312945         1.399107        -1.343808
 H        -0.367960        -0.139106        -3.095203
 H         1.342482         1.344503        -1.860480
 H        -0.087910         2.284259        -1.927438
 H         0.332323         1.899327         0.642748
 H         1.187343        -0.831766         1.009717
