19
Iteration:   619charge 0 multiplicity 1
 C        -1.548442        -1.929308        -0.849266
 C        -1.162412        -0.458285        -0.859775
 C        -2.153452         0.392160        -1.804514
 C        -0.628190         0.294114        -2.039596
 C         0.357851         1.347038        -1.574073
 C         0.395379         1.175076        -0.044530
 O        -0.909709         0.373468         0.234871
 C         1.509091         0.211819         0.488089
 O         2.635586         0.106794         0.136275
 H        -2.397612        -2.094772        -0.263609
 H        -1.824331        -2.105616        -1.809003
 H        -0.749295        -2.620769        -0.718101
 H        -2.907972        -0.003870        -2.414881
 H        -2.392152         1.221170        -1.177747
 H        -0.342907        -0.300128        -2.933843
 H         1.393630         1.259033        -2.129629
 H         0.059393         2.414925        -1.957330
 H         0.251667         2.119200         0.547698
 H         1.064925        -0.481017         1.314363
