19
Iteration:   899charge 0 multiplicity 1
 C        -1.512942        -1.854646        -0.841583
 C        -1.311178        -0.422075        -0.976217
 C        -2.109959         0.471125        -1.893578
 C        -0.653475         0.305774        -2.122274
 C         0.371592         1.215440        -1.544201
 C         0.375953         1.024340         0.043110
 O        -0.876228         0.227124         0.306072
 C         1.553430         0.307210         0.609729
 O         2.586715         0.208468         0.053875
 H        -2.379528        -2.055389        -0.205745
 H        -1.601854        -2.427670        -1.705610
 H        -0.631861        -2.084257        -0.310975
 H        -2.808619         0.017992        -2.563721
 H        -2.347089         1.458008        -1.616822
 H        -0.399483        -0.310273        -3.006306
 H         1.355171         0.997854        -1.963333
 H         0.430086         2.373828        -1.698082
 H         0.175866         2.059506         0.593353
 H         1.279071        -0.085794         1.605648
