19
Iteration:  2040
 C        -1.627737        -1.860936        -0.783006
 C        -1.274663        -0.411619        -0.957351
 C        -2.143419         0.404968        -1.902459
 C        -0.586550         0.263528        -2.149041
 C         0.220446         1.374086        -1.573214
 C         0.344127         1.013792        -0.020564
 O        -0.836465         0.234083         0.238477
 C         1.613220         0.227468         0.570437
 O         2.707323         0.221013         0.202890
 H        -2.234862        -2.057634         0.074616
 H        -2.084422        -2.279008        -1.678735
 H        -0.616104        -2.481312        -0.659252
 H        -2.844256        -0.033923        -2.631069
 H        -2.444321         1.465739        -1.743733
 H        -0.263842        -0.197125        -3.008679
 H         1.286535         1.547091        -1.870173
 H        -0.193512         2.423238        -1.677491
 H         0.516919         1.989659         0.619793
 H         1.405865        -0.314968         1.485350
