19
Iteration:  2616charge 0 multiplicity 1
 C        -1.520467        -1.849212        -0.773316
 C        -1.323052        -0.362670        -1.014495
 C        -2.232434         0.591479        -1.808686
 C        -0.662239         0.266258        -2.163582
 C         0.527436         1.087947        -1.516983
 C         0.309089         0.846718        -0.009583
 O        -0.937298         0.225336         0.280651
 C         1.562574         0.110799         0.466495
 O         2.665874         0.532568         0.183956
 H        -2.362315        -1.958357        -0.057964
 H        -1.791381        -2.299867        -1.647255
 H        -0.593727        -2.207989        -0.362741
 H        -2.877417         0.242556        -2.598351
 H        -2.466252         1.572670        -1.398347
 H        -0.421459        -0.269284        -3.078335
 H         1.540631         0.861996        -1.868165
 H         0.445529         2.188110        -1.928160
 H         0.465943         1.741048         0.464943
 H         1.470832        -0.802940         1.075130
