19
Iteration:  2851
 C        -1.441473        -1.894831        -0.777010
 C        -1.360005        -0.397793        -0.921050
 C        -2.122843         0.455498        -1.881391
 C        -0.629525         0.275920        -2.126752
 C         0.270502         1.361184        -1.549491
 C         0.336565         1.033693        -0.097142
 O        -0.894665         0.310733         0.233769
 C         1.508556         0.229371         0.551829
 O         2.722821         0.133688         0.203310
 H        -2.293822        -2.308219        -0.331925
 H        -1.272354        -2.592921        -1.638069
 H        -0.621767        -2.056430        -0.124665
 H        -2.782883         0.049657        -2.644445
 H        -2.337319         1.428399        -1.469490
 H        -0.372136        -0.392557        -2.961428
 H         1.310257         1.397086        -2.020598
 H        -0.014641         2.467575        -1.781903
 H         0.266519         2.007950         0.368131
 H         1.129103        -0.386033         1.414006
