19
Iteration:  1098charge 0 multiplicity 1
 C        -1.515708        -1.809058        -0.762471
 C        -1.368738        -0.334167        -0.978835
 C        -2.225571         0.469414        -1.881645
 C        -0.667074         0.284193        -2.180973
 C         0.364039         1.229949        -1.607235
 C         0.396387         0.845264        -0.054225
 O        -0.881462         0.240496         0.278933
 C         1.551218         0.108330         0.513359
 O         2.752149         0.417346         0.270423
 H        -2.328607        -1.948072        -0.012810
 H        -1.608500        -2.373395        -1.680819
 H        -0.647114        -2.231807        -0.129560
 H        -3.051538         0.122748        -2.583866
 H        -2.324757         1.529155        -1.517254
 H        -0.554390        -0.370428        -3.057006
 H         1.352958         1.212890        -2.232616
 H        -0.175797         2.316260        -1.678108
 H         0.644748         1.773074         0.435628
 H         1.353247        -0.596832         1.283335
