19
Iteration:  1817charge 0 multiplicity 1
 C        -1.352584        -1.853509        -0.719437
 C        -1.333541        -0.348162        -0.988611
 C        -2.113971         0.432701        -2.020583
 C        -0.559181         0.291617        -2.060379
 C         0.396868         1.329033        -1.446015
 C         0.279333         0.925656         0.048435
 O        -1.002959         0.347149         0.284789
 C         1.540218         0.190338         0.516777
 O         2.605311         0.182493        -0.012481
 H        -2.020257        -2.138310         0.216443
 H        -2.023640        -2.282783        -1.510032
 H        -0.371204        -2.295707        -0.743107
 H        -2.836561        -0.101104        -2.614785
 H        -2.410956         1.348617        -1.536070
 H        -0.320945        -0.295821        -2.913293
 H         1.378861         1.224108        -1.766057
 H        -0.078647         2.245673        -1.709772
 H         0.222044         1.904195         0.818106
 H         1.536933        -0.210709         1.620340
