19
Iteration:   964
 C        -1.671159        -1.863113        -0.817976
 C        -1.271025        -0.369738        -0.941279
 C        -2.135096         0.408923        -1.924302
 C        -0.607147         0.281054        -2.084258
 C         0.400131         1.283763        -1.486161
 C         0.343736         0.998584         0.020321
 O        -0.796341         0.176917         0.200072
 C         1.521077         0.294412         0.635022
 O         2.633071         0.297355         0.052824
 H        -2.408381        -1.910489         0.062741
 H        -2.130524        -2.424520        -1.638555
 H        -0.779937        -2.377380        -0.516952
 H        -2.767042        -0.064497        -2.636978
 H        -2.427266         1.404557        -1.727712
 H        -0.237970        -0.210089        -2.984216
 H         1.365603         0.983250        -1.820829
 H         0.208703         2.339548        -1.931782
 H         0.330927         1.860460         0.825200
 H         1.497417        -0.112764         1.690772
