19
Iteration:  3099
 C        -1.371983        -1.932044        -0.734253
 C        -1.289040        -0.388462        -0.960222
 C        -2.070549         0.412342        -1.885408
 C        -0.577945         0.338128        -2.140818
 C         0.243447         1.448187        -1.498596
 C         0.303881         1.158795         0.015375
 O        -0.908915         0.386838         0.293101
 C         1.452102         0.141675         0.447681
 O         2.648510        -0.002364         0.077567
 H        -2.381398        -2.458815        -0.748881
 H        -0.879756        -2.428987        -1.567284
 H        -0.798154        -2.094515         0.183198
 H        -2.757784        -0.233922        -2.423138
 H        -2.544422         1.383934        -1.619935
 H        -0.124295        -0.473094        -2.792337
 H         1.239159         1.488319        -1.938482
 H        -0.258018         2.393799        -1.708912
 H         0.372462         2.085389         0.669128
 H         1.022059        -0.473302         1.276982
