19
Iteration:  1077charge 0 multiplicity 1
 C        -1.455769        -1.914097        -0.730072
 C        -1.401278        -0.356786        -0.942488
 C        -2.140093         0.660511        -1.847627
 C        -0.663776         0.248265        -2.121884
 C         0.362078         1.145626        -1.538754
 C         0.342627         0.831728        -0.069957
 O        -0.961184         0.314258         0.180512
 C         1.590148         0.061193         0.519297
 O         2.709594         0.472023         0.181007
 H        -2.213590        -2.273929        -0.089974
 H        -1.386284        -2.394607        -1.692626
 H        -0.520901        -2.238140        -0.188885
 H        -2.869420         0.235284        -2.601256
 H        -2.474132         1.612049        -1.366210
 H        -0.460004        -0.314441        -3.063877
 H         1.472226         0.818046        -1.794136
 H         0.115266         2.262376        -1.901872
 H         0.371875         1.817476         0.584721
 H         1.381873        -0.729286         1.294678
