19
Iteration:  2386
 C        -1.645863        -1.842886        -0.823413
 C        -1.264512        -0.434359        -0.968199
 C        -2.050140         0.482412        -1.857567
 C        -0.609844         0.256720        -2.086795
 C         0.446871         1.211374        -1.527755
 C         0.303611         1.027128        -0.074863
 O        -0.842748         0.127305         0.267849
 C         1.533915         0.317277         0.590803
 O         2.603778         0.375671         0.105962
 H        -2.100131        -2.043584         0.290240
 H        -2.483449        -2.195032        -1.419147
 H        -0.907620        -2.554068        -1.070123
 H        -2.910646         0.164392        -2.433229
 H        -2.289799         1.473498        -1.397375
 H        -0.221199        -0.390767        -2.908030
 H         1.481248         1.010093        -1.841664
 H         0.267874         2.293641        -1.793492
 H         0.258910         1.986804         0.536823
 H         1.166905        -0.519238         1.215733
