19
Iteration:  3195charge 0 multiplicity 1
 C        -1.569062        -1.887821        -0.803295
 C        -1.194519        -0.407142        -0.904637
 C        -2.008303         0.445605        -2.012149
 C        -0.544591         0.223106        -2.038173
 C         0.265904         1.396857        -1.516347
 C         0.333336         1.069297         0.033561
 O        -0.841275         0.247806         0.270006
 C         1.435936         0.178601         0.477609
 O         2.625260         0.240935         0.119170
 H        -1.416744        -2.337683         0.215315
 H        -2.708328        -1.881960        -0.742172
 H        -1.303006        -2.630055        -1.486552
 H        -2.664757        -0.111206        -2.714053
 H        -2.436568         1.464027        -1.734826
 H        -0.073294        -0.520653        -2.758087
 H         1.280957         1.564573        -1.983030
 H        -0.367211         2.351542        -1.568580
 H         0.365471         2.037464         0.578861
 H         1.165654        -0.494330         1.315368
