19
Iteration:  3601
 C        -2.040388        -1.802514        -0.946606
 C        -1.337963        -0.544980        -1.050230
 C        -1.901017         0.708971        -1.841226
 C        -0.552253         0.121308        -2.211153
 C         0.591679         0.932620        -1.701769
 C         0.206838         0.921586        -0.125452
 O        -0.614386        -0.244769         0.165311
 C         1.474186         0.655234         0.793171
 O         2.630058         0.727581         0.512274
 H        -1.872422        -2.620998        -1.798375
 H        -1.513794        -2.205122        -0.088301
 H        -3.179248        -1.733697        -0.674516
 H        -2.730266         0.521611        -2.517871
 H        -1.951534         1.700762        -1.343791
 H        -0.424560        -0.377399        -3.217205
 H         1.447688         0.367218        -1.963029
 H         0.840587         1.926268        -2.013053
 H        -0.328423         1.912809         0.127445
 H         1.184639         0.357502         1.844078
