19
Iteration:  4204charge 0 multiplicity 1
 C        -1.901408        -1.825875        -0.886300
 C        -1.438434        -0.360419        -1.052284
 C        -2.091283         0.606057        -2.011147
 C        -0.677990         0.136714        -2.195494
 C         0.604094         0.710866        -1.777686
 C         0.525662         0.816036        -0.196971
 O        -0.778392         0.026320         0.102458
 C         1.498253         0.487513         0.813776
 O         2.699324         0.864077         0.794377
 H        -2.863874        -1.942827        -1.221786
 H        -1.111904        -2.472276        -1.317814
 H        -2.007161        -2.017058         0.271375
 H        -2.809093         0.123199        -2.672426
 H        -2.161084         1.678703        -1.890539
 H        -0.631828        -0.565766        -3.068215
 H         1.445520         0.099198        -2.150546
 H         0.885616         1.702576        -2.283970
 H         0.127265         1.859461         0.171038
 H         1.175825        -0.065369         1.693413
