19
Iteration:   325
 C        -1.487060        -1.824790        -0.692476
 C        -1.252575        -0.418154        -0.990618
 C        -2.020600         0.535759        -1.908000
 C        -0.564957         0.206418        -2.105373
 C         0.292978         1.349294        -1.538896
 C         0.263102         1.099586         0.024819
 O        -0.935079         0.276283         0.295280
 C         1.508253         0.087940         0.414979
 O         2.659967         0.223638         0.079793
 H        -2.248095        -2.138350         0.187123
 H        -1.860222        -2.313265        -1.610773
 H        -0.522450        -2.371534        -0.248918
 H        -2.840163         0.261469        -2.514741
 H        -2.321113         1.351028        -1.346879
 H        -0.218560        -0.526305        -2.872080
 H         1.307690         1.296868        -1.798482
 H        -0.111336         2.342509        -1.797498
 H         0.156528         1.994427         0.642753
 H         1.194376        -0.841715         1.088479
