19
Iteration:  3040
 C        -1.294760        -1.866670        -0.641089
 C        -1.280998        -0.431519        -0.968777
 C        -2.074306         0.500048        -1.962120
 C        -0.621737         0.323423        -2.038145
 C         0.366254         1.395874        -1.439505
 C         0.267921         1.094565         0.036268
 O        -0.953338         0.290408         0.247044
 C         1.448703         0.179302         0.545267
 O         2.538737         0.044156        -0.091038
 H        -2.256620        -2.272985        -0.875288
 H        -0.705249        -2.396211        -1.391376
 H        -0.942205        -2.067764         0.396042
 H        -2.542977         0.027978        -2.871600
 H        -2.502240         1.401920        -1.489671
 H        -0.258364        -0.264991        -2.882230
 H         1.370513         1.196066        -1.904467
 H         0.101663         2.412343        -1.912154
 H         0.259607         2.098127         0.682344
 H         1.369514        -0.348898         1.552647
