19
Iteration:  1796
 C        -1.424711        -1.865910        -0.706105
 C        -1.290402        -0.425539        -0.990167
 C        -2.103669         0.415237        -1.907422
 C        -0.593511         0.362522        -2.153829
 C         0.250039         1.415140        -1.488330
 C         0.344657         1.044517         0.010773
 O        -0.877992         0.301235         0.225266
 C         1.573443         0.172317         0.581974
 O         2.590984         0.101452         0.067293
 H        -2.276195        -2.056584         0.148412
 H        -1.762569        -2.443073        -1.631885
 H        -0.362567        -2.174364        -0.425576
 H        -2.585926        -0.202632        -2.653185
 H        -2.697651         1.309183        -1.773944
 H        -0.316060        -0.295027        -2.949382
 H         1.197340         1.343400        -1.892084
 H        -0.228289         2.351448        -1.684713
 H         0.370187         2.040446         0.643264
 H         1.188190        -0.254115         1.560330
