19
Iteration:  3118
 C        -1.316032        -1.796536        -0.649578
 C        -1.229160        -0.359629        -0.937600
 C        -2.132863         0.448578        -1.959963
 C        -0.589607         0.322964        -2.093099
 C         0.331757         1.391080        -1.462019
 C         0.290917         0.945384         0.000112
 O        -0.967575         0.312441         0.232157
 C         1.447076         0.127813         0.506848
 O         2.598050         0.112080         0.002866
 H        -2.272536        -2.098108        -0.227986
 H        -1.002412        -2.431288        -1.383958
 H        -0.671100        -2.100997         0.120407
 H        -2.702904         0.055379        -2.849554
 H        -2.597558         1.402424        -1.550118
 H        -0.136107        -0.136390        -2.989676
 H         1.336097         1.267880        -1.922185
 H        -0.094303         2.421727        -1.704791
 H         0.229783         1.882077         0.706280
 H         1.196286        -0.530297         1.367255
