19
Iteration:  4987charge 0 multiplicity 1
 C        -1.575760        -1.827545        -0.641218
 C        -1.305424        -0.484274        -1.163141
 C        -1.864456         0.401124        -2.276485
 C        -0.311084         0.055149        -2.145009
 C         0.665491         1.018093        -1.561672
 C         0.210676         1.135800        -0.070023
 O        -1.057568         0.323362         0.072104
 C         1.252136         0.458934         0.832754
 O         2.470070         0.399620         0.518354
 H        -0.657916        -2.585970        -0.657487
 H        -1.971131        -1.766155         0.343533
 H        -2.435812        -2.379205        -1.118753
 H        -2.334541        -0.102882        -3.153946
 H        -2.340293         1.361794        -2.035530
 H         0.075159        -0.612778        -2.945276
 H         1.638962         0.527498        -1.516767
 H         0.643542         2.011706        -2.074772
 H         0.042086         2.110276         0.289267
 H         0.873892         0.271981         1.911340
