19
Iteration:  2080
 C        -1.542014        -1.923061        -0.792125
 C        -1.295554        -0.407641        -0.967916
 C        -2.043384         0.526279        -1.786618
 C        -0.558803         0.245435        -2.078428
 C         0.437358         1.294789        -1.545080
 C         0.253636         1.046003        -0.039003
 O        -0.884913         0.220789         0.349796
 C         1.505584         0.194234         0.493775
 O         2.575402         0.319035         0.045901
 H        -2.584141        -2.233447        -0.380215
 H        -1.357050        -2.356776        -1.805545
 H        -0.762172        -2.316821        -0.269768
 H        -2.649113         0.085405        -2.588426
 H        -2.320609         1.517144        -1.389329
 H        -0.236615        -0.189760        -3.032669
 H         1.348371         0.798102        -1.815019
 H         0.298343         2.302243        -2.069497
 H         0.098491         1.952453         0.468429
 H         1.036501        -0.421671         1.328368
