19
Iteration:  2439
 C        -1.634240        -1.858719        -0.828876
 C        -1.316019        -0.390380        -0.994642
 C        -2.192316         0.486624        -1.785605
 C        -0.719702         0.263673        -2.145356
 C         0.336327         1.212764        -1.645351
 C         0.339695         0.955709        -0.102038
 O        -0.726976         0.171078         0.204696
 C         1.620086         0.330229         0.620479
 O         2.723826         0.303450         0.292489
 H        -2.580055        -1.946909        -0.350167
 H        -1.633800        -2.317445        -1.831208
 H        -0.863309        -2.409936        -0.339475
 H        -2.887217        -0.009186        -2.478563
 H        -2.593094         1.500778        -1.487045
 H        -0.654004        -0.249127        -3.129180
 H         1.370466         1.169704        -2.105864
 H         0.018510         2.317356        -1.784408
 H         0.395042         1.834309         0.647659
 H         1.285275        -0.000556         1.671623
