19
Iteration:  2041charge 0 multiplicity 1
 C        -1.632149        -1.859058        -0.784010
 C        -1.270569        -0.426303        -0.960794
 C        -2.147511         0.410816        -1.898491
 C        -0.576123         0.264125        -2.144090
 C         0.210491         1.375630        -1.576423
 C         0.348201         1.016059        -0.019980
 O        -0.832025         0.236046         0.237004
 C         1.612581         0.224556         0.572994
 O         2.699196         0.223256         0.200929
 H        -2.230328        -2.067198         0.040210
 H        -2.076443        -2.259050        -1.681678
 H        -0.600708        -2.452841        -0.638263
 H        -2.856498        -0.030858        -2.602998
 H        -2.433975         1.466165        -1.737979
 H        -0.249146        -0.205880        -3.010982
 H         1.267925         1.535092        -1.848836
 H        -0.159780         2.379798        -1.704542
 H         0.536491         2.024916         0.620081
 H         1.394977        -0.330073         1.477661
