19
Iteration:  1715charge 0 multiplicity 1
 C        -1.315315        -1.843754        -0.758227
 C        -1.331425        -0.375778        -0.976703
 C        -2.077915         0.484427        -1.978168
 C        -0.615067         0.303537        -2.071303
 C         0.398789         1.238749        -1.413643
 C         0.235583         0.982836         0.069012
 O        -0.984344         0.307274         0.341354
 C         1.555894         0.295689         0.551806
 O         2.547766         0.126415        -0.093497
 H        -2.218729        -2.268300        -0.085853
 H        -1.478550        -2.214592        -1.772822
 H        -0.320104        -2.117791        -0.317137
 H        -2.663365        -0.142989        -2.655026
 H        -2.609012         1.400947        -1.625741
 H        -0.468317        -0.156948        -3.058756
 H         1.429388         0.830642        -1.742343
 H         0.435166         2.291539        -1.839817
 H         0.012880         2.012052         0.686858
 H         1.652859        -0.119767         1.557236
