19
Iteration:  1744charge 0 multiplicity 1
 C        -1.383762        -1.914684        -0.798972
 C        -1.272587        -0.428561        -0.889192
 C        -2.116180         0.445405        -1.827607
 C        -0.569926         0.260286        -2.109455
 C         0.393585         1.388334        -1.544566
 C         0.328442         1.062720        -0.011352
 O        -0.905263         0.339386         0.263536
 C         1.452380         0.279481         0.588957
 O         2.543886         0.083035         0.001189
 H        -2.288958        -2.262143        -0.599081
 H        -1.291706        -2.211878        -1.840233
 H        -0.573274        -2.226755        -0.077432
 H        -2.899722        -0.002378        -2.424969
 H        -2.446436         1.382343        -1.360999
 H        -0.387537        -0.272161        -3.027801
 H         1.409863         1.307050        -2.014311
 H        -0.114940         2.370565        -1.609631
 H         0.172504         1.970725         0.528949
 H         1.220265        -0.448408         1.482644
