19
Iteration:  2118
 C        -1.493710        -1.853475        -0.822866
 C        -1.406546        -0.387673        -0.943034
 C        -2.119829         0.510564        -1.917102
 C        -0.557580         0.261174        -2.102336
 C         0.367670         1.222393        -1.494740
 C         0.297762         0.896811         0.021009
 O        -0.965867         0.285994         0.269904
 C         1.634083         0.211911         0.596945
 O         2.626050         0.325821         0.017475
 H        -2.355923        -2.144217        -0.294762
 H        -1.507755        -2.406417        -1.751140
 H        -0.615345        -2.139049        -0.046820
 H        -2.800880        -0.031683        -2.588444
 H        -2.510354         1.429709        -1.504192
 H        -0.288500        -0.231897        -3.082597
 H         1.435818         0.930574        -1.881915
 H         0.263744         2.346780        -1.596774
 H         0.402771         1.781623         0.661947
 H         1.746243        -0.178894         1.615590
