19
Iteration:  2347
 C        -1.630767        -1.911208        -0.888646
 C        -1.370837        -0.405809        -0.941624
 C        -2.036209         0.533977        -1.924838
 C        -0.581406         0.172919        -2.024247
 C         0.395824         1.155497        -1.442587
 C         0.319410         0.936540         0.093915
 O        -0.969331         0.244364         0.275479
 C         1.619895         0.319066         0.537658
 O         2.669779         0.406030         0.010984
 H        -2.008723        -2.005620         0.111809
 H        -2.288118        -2.225128        -1.701153
 H        -0.568578        -2.363440        -0.994683
 H        -2.821132         0.326424        -2.647248
 H        -2.122304         1.526193        -1.479449
 H        -0.247585        -0.490922        -2.832407
 H         1.402385         0.884780        -1.859649
 H         0.317443         2.209333        -1.675333
 H         0.086250         2.008941         0.392811
 H         1.451812        -0.402808         1.375710
