19
Iteration:  3189charge 0 multiplicity 1
 C        -1.568467        -1.893997        -0.761654
 C        -1.207045        -0.404732        -0.921117
 C        -2.031795         0.444307        -1.999574
 C        -0.490736         0.222262        -2.030931
 C         0.235826         1.407851        -1.542700
 C         0.334740         1.069927         0.014475
 O        -0.832201         0.272847         0.322279
 C         1.418013         0.172152         0.469638
 O         2.595837         0.241829         0.102335
 H        -1.424313        -2.439888         0.148754
 H        -2.681444        -2.054607        -1.069129
 H        -1.136230        -2.565294        -1.618694
 H        -2.664627        -0.022119        -2.733429
 H        -2.252894         1.448162        -1.793053
 H        -0.016517        -0.438928        -2.710789
 H         1.260890         1.334562        -1.869298
 H        -0.248174         2.345169        -1.646468
 H         0.490134         1.991460         0.666432
 H         1.173963        -0.559750         1.285856
