19
Iteration:   621charge 0 multiplicity 1
 C        -1.539361        -1.944648        -0.829176
 C        -1.181068        -0.444633        -0.854990
 C        -2.145762         0.397089        -1.800050
 C        -0.616936         0.295398        -2.028019
 C         0.366782         1.338459        -1.572739
 C         0.406067         1.155252        -0.031855
 O        -0.914851         0.366450         0.218684
 C         1.481890         0.226494         0.472362
 O         2.642758         0.108865         0.132468
 H        -2.411707        -2.093532        -0.199359
 H        -1.807077        -2.077213        -1.889385
 H        -0.757529        -2.640631        -0.741843
 H        -2.904150         0.051499        -2.457127
 H        -2.478088         1.238648        -1.174868
 H        -0.294228        -0.214351        -2.972397
 H         1.352967         1.307965        -2.109673
 H         0.039738         2.397929        -2.041507
 H         0.305227         2.087841         0.570638
 H         1.056666        -0.461827         1.323752
