19
Iteration:  2375charge 0 multiplicity 1
 C        -1.672645        -1.884856        -0.905625
 C        -1.299243        -0.402150        -0.932059
 C        -2.054972         0.476927        -1.836881
 C        -0.526773         0.236470        -2.096066
 C         0.484023         1.217790        -1.572575
 C         0.318993         0.969126         0.060302
 O        -0.842165         0.188356         0.340051
 C         1.430599         0.246199         0.552875
 O         2.585444         0.439219         0.033514
 H        -1.843433        -2.043870         0.295603
 H        -2.558071        -2.177137        -1.465771
 H        -0.807223        -2.479301        -0.999108
 H        -2.693194         0.027906        -2.593309
 H        -2.210874         1.501297        -1.430776
 H        -0.330846        -0.410722        -2.977205
 H         1.407348         0.756793        -1.891251
 H         0.427527         2.299967        -1.882351
 H         0.233408         2.011752         0.427953
 H         1.325063        -0.354100         1.488236
