19
Iteration:  4645charge 0 multiplicity 1
 C        -2.160194        -1.760214        -0.998134
 C        -1.356849        -0.498528        -1.036541
 C        -1.911486         0.665405        -1.912085
 C        -0.535383         0.043352        -2.203922
 C         0.671712         0.681236        -1.679322
 C         0.278744         0.814562        -0.169337
 O        -0.580543        -0.153466         0.215658
 C         1.474851         0.560440         0.727630
 O         2.598748         1.062058         0.681824
 H        -1.971961        -2.343894         0.016623
 H        -3.233159        -1.409522        -1.217827
 H        -1.867699        -2.185003        -1.926855
 H        -2.839815         0.438500        -2.442384
 H        -1.935493         1.716144        -1.536159
 H        -0.495804        -0.463425        -3.208063
 H         1.572809         0.019749        -1.863967
 H         0.928142         1.627175        -2.098770
 H        -0.170249         1.829125        -0.049063
 H         1.203629        -0.347566         1.436855
