19
Iteration:    10charge 0 multiplicity 1
 C        -2.054429        -1.855400        -0.934263
 C        -1.371060        -0.466378        -1.010854
 C        -2.028622         0.773592        -1.587160
 C        -0.700804         0.187362        -2.127159
 C         0.615073         0.943437        -1.665346
 C         0.352596         0.839968        -0.123898
 O        -0.611273        -0.118273         0.164660
 C         1.557847         0.466497         0.682790
 O         2.670828         0.777854         0.249020
 H        -2.665899        -2.150835        -0.104050
 H        -2.522276        -2.074987        -1.809353
 H        -1.263438        -2.560250        -0.992017
 H        -3.000338         0.376195        -2.093647
 H        -1.988124         1.717214        -1.001498
 H        -0.699892        -0.298415        -3.101112
 H         1.324133         0.113360        -1.893118
 H         0.798577         1.816906        -2.041479
 H         0.181261         1.735549         0.330671
 H         1.451922        -0.402596         1.468165
