19
Iteration:  1164charge 0 multiplicity 1
 C        -1.623895        -1.836155        -0.738828
 C        -1.314199        -0.403155        -0.885172
 C        -2.088068         0.522583        -1.867301
 C        -0.573758         0.220024        -2.117842
 C         0.313594         1.217877        -1.536809
 C         0.387872         0.897889        -0.030615
 O        -0.859224         0.268319         0.215590
 C         1.542250         0.063282         0.334774
 O         2.626528         0.509550         0.260186
 H        -2.070916        -2.109448         0.264926
 H        -2.322490        -2.111586        -1.599316
 H        -0.681076        -2.538105        -0.700910
 H        -2.855549         0.243238        -2.636989
 H        -2.038375         1.596970        -1.521349
 H        -0.131114        -0.384264        -2.924743
 H         1.408306         1.185051        -1.861203
 H        -0.036311         2.341441        -1.701497
 H         0.346893         1.687024         0.624074
 H         1.380170        -1.052344         0.738374
