19
Iteration:  2283charge 0 multiplicity 1
 C        -1.630573        -1.887722        -0.729095
 C        -1.249776        -0.485590        -0.913834
 C        -2.091267         0.471635        -1.817275
 C        -0.630084         0.282222        -2.155797
 C         0.360276         1.400865        -1.608986
 C         0.296214         1.054632        -0.098856
 O        -0.845117         0.219533         0.248250
 C         1.507043         0.190627         0.438002
 O         2.730028         0.290639         0.245664
 H        -2.545276        -2.091786        -0.454027
 H        -1.567818        -2.429893        -1.679569
 H        -1.048349        -2.468302         0.015363
 H        -2.754681        -0.147739        -2.406815
 H        -2.391114         1.427915        -1.357837
 H        -0.280366        -0.104685        -3.123076
 H         1.451051         1.268343        -2.022658
 H         0.025137         2.480449        -1.604750
 H         0.130949         1.838369         0.610367
 H         1.089875        -0.768437         0.941360
