19
Iteration:  2957charge 0 multiplicity 1
 C        -1.503447        -1.843862        -0.764817
 C        -1.216780        -0.392891        -0.928768
 C        -1.960360         0.338503        -1.977388
 C        -0.534079         0.278378        -2.043141
 C         0.200866         1.528922        -1.547105
 C         0.300329         1.063927         0.035634
 O        -0.850317         0.317802         0.317314
 C         1.499375         0.215188         0.531823
 O         2.562388         0.036562         0.029660
 H        -2.190313        -1.862242         0.179598
 H        -2.001033        -2.224587        -1.745844
 H        -0.611944        -2.430007        -0.481488
 H        -2.585198        -0.322002        -2.603447
 H        -2.491432         1.265879        -1.762900
 H        -0.032271        -0.241341        -2.868090
 H         1.132909         1.559917        -2.046843
 H        -0.409868         2.381625        -1.674306
 H         0.260331         1.923643         0.649746
 H         1.111734        -0.497860         1.315515
