19
Iteration:  4743
 C        -1.958015        -1.877125        -0.938194
 C        -1.296509        -0.502116        -1.019892
 C        -1.983918         0.536276        -1.996622
 C        -0.474908         0.018995        -2.228238
 C         0.677048         0.871417        -1.715873
 C         0.232018         1.022929        -0.168930
 O        -0.831407         0.133054         0.173943
 C         1.448530         0.509453         0.773025
 O         2.656112         0.751181         0.709869
 H        -1.729082        -2.464867        -1.805271
 H        -1.544790        -2.279171         0.043687
 H        -2.974609        -1.778689        -0.738691
 H        -2.704173         0.094273        -2.696645
 H        -2.302239         1.529706        -1.713154
 H        -0.365750        -0.478923        -3.156724
 H         1.599693         0.208898        -1.654195
 H         1.022588         1.672510        -2.301386
 H         0.071618         2.131000         0.120148
 H         1.009776        -0.243556         1.503861
