19
Iteration:  3434
 C        -1.749950        -1.821959        -0.877215
 C        -1.387400        -0.407664        -1.054617
 C        -2.132802         0.558942        -2.001497
 C        -0.555212         0.163138        -2.183652
 C         0.548328         1.065703        -1.576533
 C         0.325534         0.766890        -0.038455
 O        -0.927504         0.116175         0.272964
 C         1.599899         0.360010         0.657756
 O         2.726474         0.649256         0.343115
 H        -2.665989        -1.892978        -0.140283
 H        -2.137300        -2.421850        -1.839889
 H        -1.012238        -2.412895        -0.329982
 H        -2.890998         0.200654        -2.682023
 H        -2.372819         1.511471        -1.499442
 H        -0.175103        -0.448721        -2.992024
 H         1.596053         0.891428        -1.841474
 H         0.444906         2.131852        -1.728542
 H         0.206947         1.655905         0.629385
 H         1.448600        -0.191826         1.648074
