19
Iteration:  4130charge 0 multiplicity 1
 C        -2.088012        -1.723143        -1.001694
 C        -1.282894        -0.449215        -1.075656
 C        -1.857764         0.703653        -1.863409
 C        -0.502569         0.060303        -2.220536
 C         0.643380         0.700165        -1.568388
 C         0.253582         0.832196        -0.103907
 O        -0.673856        -0.214612         0.166281
 C         1.433141         0.721376         0.876429
 O         2.534989         0.831082         0.366148
 H        -2.424454        -2.060212        -1.992511
 H        -1.402523        -2.471038        -0.398654
 H        -2.996519        -1.562603        -0.274807
 H        -2.719322         0.330051        -2.370447
 H        -1.679768         1.743634        -1.622294
 H        -0.399127        -0.770941        -2.948182
 H         1.504041        -0.005040        -1.650504
 H         1.006927         1.735723        -1.862456
 H        -0.191537         1.768505         0.271971
 H         1.347833         0.769635         2.004715
