19
Iteration:   557charge 0 multiplicity 1
 C        -1.489664        -1.917867        -0.644593
 C        -1.302626        -0.367091        -1.047872
 C        -2.069097         0.608494        -1.885217
 C        -0.617635         0.276130        -2.186446
 C         0.371841         1.219124        -1.506137
 C         0.286994         1.025894         0.073147
 O        -0.950326         0.205601         0.243577
 C         1.579734         0.268565         0.584155
 O         2.614860         0.178615        -0.013387
 H        -2.162688        -2.216695         0.237672
 H        -1.685226        -2.458236        -1.660493
 H        -0.465869        -2.266538        -0.362301
 H        -2.822456         0.189385        -2.501807
 H        -2.385759         1.579221        -1.524113
 H        -0.386401        -0.066415        -3.200644
 H         1.351748         1.054686        -1.831620
 H         0.175804         2.294131        -1.676628
 H         0.165325         1.890765         0.736186
 H         1.467074        -0.028423         1.636623
