19
Iteration:  1374charge 0 multiplicity 1
 C        -1.699052        -1.887167        -0.804912
 C        -1.277393        -0.463436        -1.038424
 C        -2.108900         0.465209        -1.837019
 C        -0.593689         0.232827        -2.142667
 C         0.325547         1.295056        -1.523906
 C         0.363756         1.005844        -0.034767
 O        -0.783712         0.153738         0.232130
 C         1.588946         0.303929         0.567849
 O         2.693366         0.342951         0.190487
 H        -2.604775        -1.714438        -0.157799
 H        -2.203084        -2.184333        -1.810872
 H        -0.961914        -2.484520        -0.150031
 H        -2.936647         0.054240        -2.348766
 H        -2.221223         1.435885        -1.442354
 H        -0.280714        -0.359414        -3.022545
 H         1.269071         1.193209        -2.081339
 H        -0.016781         2.342838        -1.614782
 H         0.133248         2.124144         0.402823
 H         1.094010        -0.302709         1.417823
