19
Iteration:  3221
 C        -1.616923        -1.875384        -0.686647
 C        -1.277845        -0.425915        -0.990345
 C        -2.095959         0.394451        -2.007091
 C        -0.490797         0.299836        -2.181962
 C         0.275983         1.398286        -1.494393
 C         0.274652         0.954176         0.077449
 O        -0.927715         0.240910         0.199431
 C         1.592969         0.199409         0.537706
 O         2.694996         0.273492         0.158991
 H        -0.925802        -2.510309        -0.191149
 H        -2.422609        -1.867567        -0.023419
 H        -1.864134        -2.347637        -1.661258
 H        -2.727037        -0.013617        -2.780962
 H        -2.421593         1.341418        -1.677772
 H        -0.024631        -0.174726        -3.014972
 H         1.345859         1.303970        -1.748189
 H         0.025130         2.461676        -1.656663
 H         0.433819         1.996951         0.603211
 H         1.363013        -0.278223         1.545314
