19
Iteration:  2465
 C        -1.585989        -1.976220        -0.890564
 C        -1.324574        -0.403223        -0.926356
 C        -2.190041         0.551340        -1.770877
 C        -0.706417         0.297450        -2.111585
 C         0.479446         1.103850        -1.643221
 C         0.324657         1.078497        -0.068932
 O        -0.864157         0.204241         0.274898
 C         1.554187         0.351365         0.564022
 O         2.747275         0.340599         0.207291
 H        -2.779994        -2.152661        -0.631541
 H        -1.430745        -2.144534        -1.942223
 H        -0.901255        -2.625118        -0.291135
 H        -2.992351         0.152048        -2.398729
 H        -2.400125         1.425540        -1.215709
 H        -0.609226        -0.389731        -2.938266
 H         1.420343         0.662767        -1.955151
 H         0.460874         2.170610        -1.882354
 H         0.278616         2.040574         0.565207
 H         1.217587        -0.404243         1.337641
