19
Iteration:  3096
 C        -1.391796        -1.949234        -0.761213
 C        -1.273716        -0.383847        -0.924791
 C        -2.083422         0.415976        -1.871572
 C        -0.569743         0.329527        -2.155684
 C         0.258433         1.457420        -1.504254
 C         0.314086         1.155651         0.007350
 O        -0.910171         0.396305         0.298655
 C         1.445499         0.159573         0.451960
 O         2.647014        -0.014645         0.081177
 H        -2.331744        -2.483930        -0.690418
 H        -0.787224        -2.372308        -1.464348
 H        -0.868476        -2.244120         0.103893
 H        -2.756714        -0.271021        -2.460994
 H        -2.589083         1.379918        -1.644473
 H        -0.069472        -0.399002        -2.778878
 H         1.241014         1.548838        -2.007162
 H        -0.359470         2.381031        -1.734679
 H         0.336482         2.126933         0.659119
 H         1.005848        -0.509651         1.226221
