19
Iteration:   123charge 0 multiplicity 1
 C        -1.687150        -1.935537        -0.853833
 C        -1.284638        -0.474649        -0.969068
 C        -2.067163         0.708374        -1.679618
 C        -0.692035         0.269436        -2.049562
 C         0.451719         1.148845        -1.643173
 C         0.415135         1.060736        -0.116889
 O        -0.653333         0.026881         0.165239
 C         1.447168         0.370035         0.601267
 O         2.567777         0.361203         0.196145
 H        -2.540866        -1.865853        -0.180841
 H        -2.055046        -2.322152        -1.898632
 H        -1.061877        -2.720346        -0.406932
 H        -2.922356         0.282333        -2.219255
 H        -2.232588         1.578912        -1.099170
 H        -0.572532        -0.199895        -3.057133
 H         1.311110         0.799185        -2.044560
 H         0.243223         2.075286        -1.953748
 H         0.091502         1.989539         0.249860
 H         1.127359        -0.111563         1.547529
