19
Iteration:  3515
 C        -1.741482        -1.899143        -0.906348
 C        -1.348828        -0.438442        -1.076021
 C        -2.103784         0.646570        -1.863707
 C        -0.716272         0.181066        -2.268894
 C         0.590347         0.959165        -1.651585
 C         0.399254         0.994500        -0.097655
 O        -0.806239         0.008983         0.173395
 C         1.483256         0.437773         0.828971
 O         2.673036         0.599390         0.419982
 H        -1.076257        -2.308410        -0.040041
 H        -2.728840        -2.145375        -0.588431
 H        -1.560854        -2.517446        -1.904757
 H        -2.970657         0.450288        -2.544814
 H        -2.287653         1.523635        -1.225377
 H        -0.524412        -0.473291        -3.179066
 H         1.482307         0.399940        -1.816209
 H         0.702477         2.015872        -1.858117
 H         0.121498         2.044099         0.340055
 H         1.231488         0.186112         1.936534
