19
Iteration:  2722charge 0 multiplicity 1
 C        -1.644391        -1.854164        -0.709904
 C        -1.318662        -0.492795        -0.994262
 C        -2.086880         0.502645        -1.912444
 C        -0.608983         0.247668        -2.170031
 C         0.429540         1.316282        -1.468453
 C         0.275355         0.950715        -0.031736
 O        -0.900290         0.217120         0.225837
 C         1.600098         0.245961         0.540799
 O         2.720549         0.363882         0.134571
 H        -2.113997        -1.888430         0.245585
 H        -2.386760        -2.206377        -1.501809
 H        -0.869159        -2.687774        -0.642560
 H        -2.680262        -0.038565        -2.628349
 H        -2.557569         1.432860        -1.651275
 H        -0.186764        -0.140876        -3.091070
 H         1.411055         1.175347        -1.832787
 H        -0.110155         2.150834        -1.682977
 H         0.234763         1.849658         0.763960
 H         1.390631        -0.451748         1.392806
