19
Iteration:  1885charge 0 multiplicity 1
 C        -1.541520        -1.873599        -0.672859
 C        -1.233013        -0.422900        -0.949105
 C        -2.046710         0.451339        -1.967709
 C        -0.592133         0.232690        -2.102411
 C         0.294676         1.423512        -1.508988
 C         0.271431         1.045559         0.024263
 O        -0.876113         0.260782         0.238211
 C         1.494200         0.208623         0.470279
 O         2.669147         0.190591         0.079557
 H        -2.518832        -2.028879        -0.193760
 H        -1.785180        -2.245660        -1.693952
 H        -0.769148        -2.478850        -0.200361
 H        -2.637800        -0.205861        -2.586322
 H        -2.441262         1.336812        -1.471768
 H         0.063736        -0.182451        -2.893084
 H         1.289343         1.527336        -1.888233
 H        -0.180943         2.343766        -1.545179
 H         0.250561         1.965104         0.775348
 H         1.283288        -0.553172         1.274966
