19
Iteration:  3442charge 0 multiplicity 1
 C        -1.751656        -1.797666        -0.869004
 C        -1.386133        -0.421377        -1.036865
 C        -2.078112         0.531991        -1.995884
 C        -0.611709         0.169832        -2.154341
 C         0.505376         1.051329        -1.586081
 C         0.356889         0.827868        -0.035562
 O        -0.876801         0.102441         0.218515
 C         1.568393         0.312289         0.702859
 O         2.731414         0.642833         0.374153
 H        -2.471080        -1.774146        -0.098357
 H        -2.305157        -2.163769        -1.806646
 H        -0.951860        -2.500298        -0.671651
 H        -2.829312         0.098697        -2.711604
 H        -2.407745         1.463930        -1.446596
 H        -0.314738        -0.310646        -3.139140
 H         1.579920         0.879108        -1.995272
 H         0.132991         2.077297        -1.934715
 H         0.255993         1.739575         0.477301
 H         1.410196        -0.038098         1.738421
