19
Iteration:  2230charge 0 multiplicity 1
 C        -1.453275        -1.776986        -0.787761
 C        -1.367803        -0.327441        -0.929886
 C        -2.133831         0.466214        -1.951264
 C        -0.654175         0.266037        -2.109434
 C         0.333805         1.218403        -1.524345
 C         0.334648         0.880497         0.021491
 O        -0.976569         0.376976         0.314116
 C         1.613922        -0.050164         0.359900
 O         2.664253         0.439374         0.198800
 H        -2.111152        -2.195354         0.110747
 H        -1.715344        -2.387017        -1.710326
 H        -0.412096        -2.086085        -0.470806
 H        -2.596093        -0.142636        -2.724811
 H        -2.648070         1.375975        -1.566346
 H        -0.170531        -0.455606        -2.786367
 H         1.399769         1.067183        -1.826515
 H         0.345240         2.299199        -1.594452
 H         0.475165         1.761651         0.618446
 H         1.345012        -0.921225         0.989663
