19
Iteration:  2156charge 0 multiplicity 1
 C        -1.581316        -1.867668        -0.809029
 C        -1.298127        -0.395225        -0.956757
 C        -2.038346         0.413979        -1.888176
 C        -0.580765         0.237117        -2.084404
 C         0.252785         1.376901        -1.526095
 C         0.337212         1.061146        -0.000659
 O        -0.789170         0.259025         0.254134
 C         1.531903         0.138617         0.469762
 O         2.647325         0.259907         0.164883
 H        -2.225036        -2.004361         0.194952
 H        -2.136008        -2.376289        -1.650888
 H        -0.713640        -2.402459        -0.674194
 H        -2.780818        -0.187641        -2.417748
 H        -2.442265         1.346557        -1.444928
 H        -0.267078        -0.173653        -3.017604
 H         1.258910         1.471628        -1.838768
 H        -0.125009         2.320557        -1.902916
 H         0.263831         2.150076         0.583732
 H         0.968209        -0.542807         1.197360
