19
Iteration:  1934
 C        -1.509278        -1.854166        -0.787354
 C        -1.309895        -0.385576        -0.977376
 C        -2.102354         0.413232        -1.920454
 C        -0.640571         0.238132        -2.098798
 C         0.314835         1.319894        -1.493090
 C         0.317705         1.002316         0.016678
 O        -0.906432         0.316024         0.279019
 C         1.524923         0.164416         0.516555
 O         2.696153         0.266047         0.085084
 H        -2.535198        -2.030796        -0.424471
 H        -1.470669        -2.405361        -1.745399
 H        -0.758164        -2.283153         0.000270
 H        -2.660833        -0.139678        -2.668125
 H        -2.301736         1.442420        -1.618192
 H        -0.239953        -0.305343        -2.880339
 H         1.429552         1.308107        -1.720079
 H        -0.092341         2.364875        -1.672001
 H         0.512796         1.857400         0.598471
 H         1.337325        -0.415254         1.416635
