19
Iteration:  2059charge 0 multiplicity 1
 C        -1.558694        -1.888309        -0.826840
 C        -1.258179        -0.380538        -0.939932
 C        -2.044242         0.476085        -1.839617
 C        -0.620355         0.200021        -2.113606
 C         0.351455         1.328170        -1.525474
 C         0.323572         1.070589        -0.034625
 O        -0.804915         0.226542         0.253339
 C         1.512805         0.244300         0.507941
 O         2.609995         0.255290         0.147721
 H        -2.503154        -1.903460        -0.156051
 H        -1.813777        -2.389557        -1.791846
 H        -0.842021        -2.558655        -0.414027
 H        -2.858809        -0.013291        -2.401569
 H        -2.373642         1.380600        -1.298913
 H        -0.240662        -0.417986        -2.922419
 H         1.283307         1.318882        -2.151311
 H        -0.205476         2.366592        -1.665792
 H         0.142122         1.881929         0.548169
 H         1.066457        -0.492780         1.291291
