19
Iteration:  1801charge 0 multiplicity 1
 C        -1.421259        -1.856686        -0.716803
 C        -1.271269        -0.422126        -0.937501
 C        -2.103292         0.435780        -1.941369
 C        -0.618835         0.346041        -2.163875
 C         0.250140         1.364082        -1.463428
 C         0.338212         0.996944         0.022463
 O        -0.935439         0.312789         0.225186
 C         1.537881         0.202336         0.623363
 O         2.634811         0.120145         0.012076
 H        -1.972205        -1.922160         0.140398
 H        -1.719735        -2.418445        -1.571081
 H        -0.407036        -2.279558        -0.479289
 H        -2.658593        -0.116032        -2.724357
 H        -2.685841         1.379409        -1.836858
 H        -0.116636        -0.318588        -2.918912
 H         1.292175         1.310083        -1.987775
 H        -0.022502         2.480110        -1.447118
 H         0.402404         1.884110         0.579548
 H         1.158118        -0.241778         1.559329
