19
Iteration:  3211
 C        -1.656022        -1.817163        -0.686930
 C        -1.295213        -0.420945        -1.040214
 C        -2.038379         0.369231        -1.952268
 C        -0.477689         0.251617        -2.163675
 C         0.286326         1.403780        -1.464503
 C         0.305448         1.019091         0.001951
 O        -0.892496         0.240754         0.233124
 C         1.525503         0.236051         0.572155
 O         2.709259         0.236898         0.131384
 H        -0.866688        -2.209030        -0.073458
 H        -2.661685        -2.115256        -0.432433
 H        -1.525951        -2.367623        -1.684561
 H        -2.653154        -0.233194        -2.601541
 H        -2.427456         1.308985        -1.665353
 H        -0.135478        -0.162239        -3.070136
 H         1.311232         1.527655        -1.825436
 H        -0.302334         2.290324        -1.551030
 H         0.156791         1.867506         0.747951
 H         1.245553        -0.565360         1.312941
