19
Iteration:  1430charge 0 multiplicity 1
 C        -1.584596        -1.843919        -0.869084
 C        -1.337517        -0.429803        -0.937231
 C        -2.067406         0.556573        -1.827807
 C        -0.669662         0.154040        -2.108641
 C         0.385750         1.171608        -1.542583
 C         0.315127         0.996366         0.012670
 O        -0.831713         0.210042         0.274519
 C         1.542081         0.264275         0.577765
 O         2.662555         0.378054         0.100058
 H        -2.595471        -2.037949        -0.351858
 H        -1.527750        -2.325894        -1.877312
 H        -0.715193        -2.409856        -0.446339
 H        -2.639320         0.124310        -2.594546
 H        -2.287563         1.569004        -1.550309
 H        -0.590010        -0.363376        -3.074188
 H         1.423303         0.921459        -1.866228
 H         0.125652         2.214269        -1.793108
 H         0.271313         2.117638         0.507385
 H         1.241201        -0.165183         1.584000
