19
Iteration:  1455charge 0 multiplicity 1
 C        -1.574555        -1.911326        -0.866391
 C        -1.312385        -0.439814        -0.910260
 C        -2.028416         0.555957        -1.794177
 C        -0.586761         0.184389        -2.087113
 C         0.553172         1.198331        -1.561778
 C         0.275184         1.011469        -0.012284
 O        -0.897891         0.230790         0.328988
 C         1.474584         0.269697         0.477566
 O         2.562837         0.399654         0.064661
 H        -2.363079        -2.247497        -0.042259
 H        -1.880925        -2.260193        -1.821724
 H        -0.672135        -2.470924        -0.854802
 H        -2.946059         0.284850        -2.425777
 H        -2.170519         1.460291        -1.137012
 H        -0.350399        -0.615023        -2.763902
 H         1.669562         0.879912        -1.779979
 H         0.340404         2.287405        -1.900762
 H         0.139232         2.081392         0.470581
 H         0.987062        -0.422750         1.199694
