19
Iteration:  3441charge 0 multiplicity 1
 C        -1.750646        -1.794490        -0.873399
 C        -1.390418        -0.422731        -1.037124
 C        -2.087700         0.536418        -1.999758
 C        -0.605894         0.167788        -2.156795
 C         0.515883         1.050208        -1.587066
 C         0.354021         0.815049        -0.037523
 O        -0.883814         0.104019         0.228756
 C         1.564478         0.316584         0.696535
 O         2.735033         0.644918         0.370523
 H        -2.474127        -1.778497        -0.133405
 H        -2.268425        -2.180159        -1.761372
 H        -0.960037        -2.510378        -0.623615
 H        -2.850285         0.110807        -2.712534
 H        -2.408717         1.453827        -1.439597
 H        -0.272121        -0.311524        -3.133919
 H         1.594817         0.898357        -1.981400
 H         0.153816         2.088875        -1.927674
 H         0.242584         1.748356         0.534971
 H         1.435172        -0.041335         1.726673
