19
Iteration:  2577
 C        -1.766229        -1.835455        -0.793933
 C        -1.290595        -0.441721        -0.990778
 C        -2.101029         0.512224        -1.852875
 C        -0.566971         0.155743        -2.111230
 C         0.349316         1.316264        -1.557233
 C         0.334139         0.969926        -0.055882
 O        -0.799847         0.134632         0.284435
 C         1.595398         0.233376         0.458836
 O         2.742073         0.436820         0.235673
 H        -2.211507        -2.093066         0.218495
 H        -2.570329        -2.206696        -1.602682
 H        -0.938570        -2.626864        -1.083151
 H        -2.895560         0.216087        -2.570875
 H        -2.320405         1.578502        -1.604674
 H        -0.357951        -0.570812        -2.915452
 H         1.408059         1.509682        -1.874597
 H        -0.082140         2.294370        -1.637203
 H         0.109042         1.903549         0.646341
 H         1.151975        -0.587263         1.131948
