19
Iteration:   401
 C        -1.415721        -1.931404        -0.785284
 C        -1.379280        -0.359035        -0.839733
 C        -2.076535         0.543474        -1.943888
 C        -0.573073         0.237015        -2.006240
 C         0.324784         1.332711        -1.617457
 C         0.352807         1.014245        -0.039760
 O        -0.925504         0.374421         0.323408
 C         1.481164         0.099342         0.461934
 O         2.632003         0.213569         0.089375
 H        -2.152403        -2.472220        -0.029928
 H        -1.689847        -2.213686        -1.788207
 H        -0.374608        -2.323682        -0.465058
 H        -2.746388         0.151902        -2.689960
 H        -2.155930         1.557049        -1.569436
 H        -0.203905        -0.631282        -2.589283
 H         1.218971         1.319244        -2.042284
 H        -0.229524         2.254066        -1.652673
 H         0.351591         1.923145         0.577700
 H         1.108476        -0.719287         1.080011
