19
Iteration:  3330charge 0 multiplicity 1
 C        -1.693721        -1.839469        -0.764300
 C        -1.349377        -0.457365        -1.080405
 C        -2.092465         0.476257        -1.911137
 C        -0.691303         0.285952        -2.248383
 C         0.399563         1.237800        -1.624880
 C         0.307980         0.902860        -0.061398
 O        -0.810290         0.123604         0.184474
 C         1.581669         0.304632         0.716423
 O         2.761591         0.417356         0.386995
 H        -1.564257        -2.252098        -1.748419
 H        -0.952663        -2.215691        -0.157804
 H        -2.741832        -1.940010        -0.336536
 H        -2.643009        -0.092713        -2.633385
 H        -2.558518         1.407794        -1.587642
 H        -0.480003        -0.217967        -3.160927
 H         1.502490         1.030112        -1.818333
 H         0.032399         2.315851        -1.873976
 H         0.340838         1.921587         0.280196
 H         1.305620        -0.059055         1.775564
