19
Iteration:  3910
 C        -2.219535        -1.713720        -0.741510
 C        -1.340053        -0.426280        -1.063565
 C        -1.914821         0.678681        -1.867618
 C        -0.611278         0.131272        -2.354242
 C         0.726025         0.595099        -1.879797
 C         0.482468         0.753134        -0.259305
 O        -0.645381        -0.171254         0.111249
 C         1.710668         0.363846         0.505769
 O         2.341384         1.224809         1.096209
 H        -2.965120        -1.466150        -0.033429
 H        -2.770461        -2.061512        -1.659182
 H        -1.478169        -2.515359        -0.318579
 H        -2.724704         0.297487        -2.454465
 H        -2.199648         1.635720        -1.467538
 H        -0.707268        -0.305463        -3.369404
 H         1.605317        -0.130373        -2.080354
 H         1.014044         1.554204        -2.430667
 H         0.258067         1.751427        -0.087567
 H         1.839041        -0.699532         0.721322
