19
Iteration:  4751charge 0 multiplicity 1
 C        -1.951082        -1.859488        -0.830192
 C        -1.320057        -0.455686        -1.110574
 C        -1.943650         0.491436        -1.993444
 C        -0.489488         0.056149        -2.236701
 C         0.674406         0.879766        -1.667481
 C         0.290134         0.992479        -0.221018
 O        -0.834084         0.128431         0.130778
 C         1.445438         0.497325         0.784589
 O         2.607618         0.736487         0.706884
 H        -1.826942        -2.279948        -1.773241
 H        -1.348219        -2.441668        -0.019952
 H        -3.030883        -1.839460        -0.634432
 H        -2.697334         0.065820        -2.689772
 H        -2.137681         1.482740        -1.476687
 H        -0.348135        -0.592937        -3.191142
 H         1.626763         0.368437        -1.642452
 H         0.875132         1.941649        -2.062595
 H        -0.071309         1.948841        -0.029609
 H         1.121585        -0.219635         1.616923
