19
Iteration:  4689
 C        -1.970750        -1.825006        -0.892975
 C        -1.333596        -0.493236        -1.078471
 C        -1.880761         0.692778        -2.033932
 C        -0.554791         0.092375        -2.283410
 C         0.634957         0.719353        -1.612471
 C         0.341678         0.779819        -0.115396
 O        -0.862317        -0.013472         0.157381
 C         1.508535         0.493492         0.860876
 O         2.579321         0.978025         0.572943
 H        -1.096334        -2.609960        -0.629624
 H        -2.454612        -1.839477         0.144053
 H        -2.639236        -2.147953        -1.660105
 H        -2.623251         0.662900        -2.825002
 H        -2.004352         1.595069        -1.442040
 H        -0.458868        -0.595279        -3.121516
 H         1.560336         0.085852        -1.815598
 H         0.823556         1.717242        -1.882597
 H         0.226962         1.924846        -0.007345
 H         1.254540        -0.244022         1.622109
