19
Iteration:  1216
 C        -1.632773        -1.881078        -0.823443
 C        -1.345475        -0.417962        -0.949612
 C        -2.175691         0.511416        -1.916130
 C        -0.668725         0.232276        -2.102769
 C         0.402230         1.206280        -1.519328
 C         0.377654         0.902047         0.021375
 O        -0.897883         0.339266         0.245974
 C         1.593763         0.042557         0.378166
 O         2.780173         0.525939         0.266751
 H        -2.535735        -1.959847        -0.103661
 H        -1.758665        -2.454639        -1.721453
 H        -0.820548        -2.415420        -0.263025
 H        -3.010664        -0.012337        -2.465109
 H        -2.528216         1.454379        -1.404402
 H        -0.450920        -0.344030        -3.041917
 H         1.377999         1.079520        -1.801690
 H         0.094959         2.171859        -1.695787
 H         0.420165         1.909986         0.612379
 H         1.491910        -0.923384         0.813023
