19
Iteration:  4264charge 0 multiplicity 1
 C        -1.973825        -1.771257        -0.777936
 C        -1.378588        -0.389968        -0.988205
 C        -1.958462         0.620130        -1.916387
 C        -0.564290         0.038315        -2.223626
 C         0.643046         0.798067        -1.808158
 C         0.370008         0.924151        -0.220068
 O        -0.716637         0.118394         0.169558
 C         1.638465         0.230790         0.325198
 O         2.430284         0.921668         0.982236
 H        -2.160803        -2.479789        -1.751875
 H        -1.212169        -2.504412        -0.266458
 H        -2.782669        -1.795197        -0.095734
 H        -2.782404         0.178333        -2.530495
 H        -2.102913         1.675022        -1.646488
 H        -0.640742        -0.737137        -2.923556
 H         1.635990         0.391044        -2.029548
 H         0.473624         1.776140        -2.139302
 H         0.284028         1.812156         0.250520
 H         1.559731        -0.854167         0.227894
