19
Iteration:  1944charge 0 multiplicity 1
 C        -1.523851        -1.887917        -0.821551
 C        -1.303764        -0.426236        -0.928575
 C        -2.086934         0.463697        -1.895643
 C        -0.536408         0.243775        -2.097194
 C         0.348183         1.279374        -1.499898
 C         0.326105         1.027912         0.007556
 O        -0.925088         0.332198         0.317582
 C         1.527785         0.174778         0.489175
 O         2.622528         0.282459         0.080202
 H        -2.419548        -2.070109        -0.274080
 H        -1.387270        -2.438144        -1.750048
 H        -0.638031        -2.329458        -0.136717
 H        -2.887363         0.067845        -2.533072
 H        -2.460609         1.460945        -1.625364
 H        -0.190517        -0.300737        -2.908294
 H         1.314028         1.074608        -2.061510
 H         0.067421         2.332861        -1.700381
 H         0.178416         1.965276         0.556635
 H         1.253151        -0.614634         1.212268
