19
Iteration:  2071
 C        -1.561525        -1.893910        -0.810495
 C        -1.249932        -0.458456        -0.888993
 C        -2.070035         0.494397        -1.794455
 C        -0.554731         0.274339        -2.102906
 C         0.398922         1.271802        -1.595931
 C         0.284036         1.061471        -0.012237
 O        -0.850257         0.200826         0.294112
 C         1.403877         0.252622         0.473052
 O         2.629805         0.280141         0.093840
 H        -2.547711        -2.160891        -0.331464
 H        -1.606296        -2.214183        -1.866798
 H        -0.733734        -2.344726        -0.212987
 H        -2.741303         0.128615        -2.594772
 H        -2.266149         1.554443        -1.497632
 H        -0.416821        -0.298248        -2.952802
 H         1.541147         1.245191        -1.680662
 H         0.046756         2.384393        -1.860775
 H         0.310504         1.959172         0.480776
 H         1.137568        -0.495165         1.283811
