19
Iteration:  1484charge 0 multiplicity 1
 C        -1.595335        -1.867511        -0.738086
 C        -1.299077        -0.424149        -1.014264
 C        -2.069863         0.504255        -1.923049
 C        -0.652003         0.269314        -2.140680
 C         0.393285         1.284260        -1.513752
 C         0.310989         0.955559         0.027762
 O        -0.863639         0.206226         0.235425
 C         1.511717         0.247937         0.594094
 O         2.679709         0.350271         0.089441
 H        -1.985374        -2.214770         0.261956
 H        -2.314915        -2.296565        -1.468215
 H        -0.677595        -2.524705        -0.783467
 H        -2.809991        -0.004160        -2.459618
 H        -2.441275         1.418112        -1.506141
 H        -0.206059        -0.373654        -2.900830
 H         1.386456         1.146798        -1.905258
 H         0.280682         2.337631        -1.717541
 H         0.218914         1.993922         0.521638
 H         1.299896        -0.534446         1.439715
