19
Iteration:  1376
 C        -1.699744        -1.892698        -0.789110
 C        -1.285464        -0.465969        -1.041305
 C        -2.116237         0.468281        -1.856315
 C        -0.598127         0.248808        -2.148377
 C         0.320840         1.288034        -1.522129
 C         0.359117         1.002477        -0.025372
 O        -0.780635         0.153894         0.226188
 C         1.610396         0.317587         0.565824
 O         2.697578         0.336013         0.196364
 H        -2.689506        -1.710686        -0.165263
 H        -2.145264        -2.185244        -1.786219
 H        -0.988296        -2.522196        -0.170168
 H        -2.933217         0.010302        -2.383674
 H        -2.282216         1.430550        -1.350749
 H        -0.244204        -0.326822        -3.028657
 H         1.336141         1.183297        -2.113096
 H        -0.055614         2.387079        -1.546258
 H         0.175431         2.043895         0.332787
 H         1.082749        -0.267548         1.439505
