19
Iteration:  3227charge 0 multiplicity 1
 C        -1.601718        -1.920783        -0.719046
 C        -1.245788        -0.428446        -0.974433
 C        -2.082551         0.425529        -2.046429
 C        -0.564712         0.319830        -2.154179
 C         0.315193         1.374747        -1.474177
 C         0.288444         0.952409         0.041968
 O        -0.947087         0.252770         0.212225
 C         1.547560         0.176062         0.566448
 O         2.722376         0.301783         0.145361
 H        -0.756572        -2.541397        -0.266659
 H        -2.362235        -1.652478         0.143695
 H        -2.094214        -2.411446        -1.561670
 H        -2.723736        -0.029075        -2.833486
 H        -2.437790         1.410392        -1.632376
 H        -0.052878        -0.295468        -2.955515
 H         1.355896         1.258692        -1.844246
 H         0.123446         2.450591        -1.724399
 H         0.280755         1.831981         0.655377
 H         1.389594        -0.204889         1.600274
