19
Iteration:  4853
 C        -1.789127        -1.863011        -0.852033
 C        -1.347444        -0.415065        -1.082480
 C        -1.845943         0.456380        -2.169843
 C        -0.410507        -0.047910        -2.139532
 C         0.594983         0.915446        -1.565062
 C         0.295320         0.987998        -0.113013
 O        -0.988257         0.270136         0.097270
 C         1.384329         0.410352         0.804945
 O         2.583402         0.688567         0.587157
 H        -2.709623        -1.854362        -0.199014
 H        -2.133662        -2.324689        -1.834351
 H        -1.135620        -2.374999        -0.180604
 H        -2.560757         0.061117        -2.850783
 H        -1.948930         1.463560        -1.823056
 H        -0.056196        -0.688913        -2.903273
 H         1.730285         0.729183        -1.613359
 H         0.453273         1.893180        -1.992161
 H         0.093635         1.945464         0.268218
 H         1.166058        -0.024144         1.777374
