19
Iteration:  2286charge 0 multiplicity 1
 C        -1.633207        -1.861949        -0.733465
 C        -1.228514        -0.491288        -0.921975
 C        -2.124243         0.474674        -1.834451
 C        -0.613883         0.257818        -2.162918
 C         0.369538         1.425141        -1.609564
 C         0.318621         1.056722        -0.073497
 O        -0.829048         0.211069         0.250348
 C         1.545113         0.178663         0.431448
 O         2.694202         0.293457         0.247704
 H        -2.724500        -2.153594        -0.372313
 H        -1.573991        -2.501633        -1.680560
 H        -1.055935        -2.413816        -0.058414
 H        -2.840723        -0.182655        -2.404442
 H        -2.477568         1.395489        -1.336737
 H        -0.374386        -0.102428        -3.133951
 H         1.409859         1.250387        -1.874699
 H         0.000942         2.455325        -1.598587
 H         0.065901         1.893314         0.490936
 H         1.140325        -0.702791         1.042859
