19
Iteration:   383
 C        -1.435234        -1.798330        -0.753639
 C        -1.352302        -0.358105        -0.925833
 C        -2.120595         0.417527        -1.927757
 C        -0.612531         0.229427        -2.109425
 C         0.296362         1.340859        -1.453069
 C         0.313606         1.005560         0.011388
 O        -0.945486         0.371459         0.268193
 C         1.552549         0.105104         0.407505
 O         2.724715         0.178606         0.119267
 H        -2.131875        -1.857196         0.146787
 H        -1.910305        -2.320579        -1.673361
 H        -0.417180        -2.225042        -0.620777
 H        -2.677778        -0.287173        -2.506167
 H        -2.531971         1.382440        -1.713133
 H        -0.321689        -0.247794        -3.028757
 H         1.417060         1.226148        -1.810424
 H         0.009332         2.399759        -1.686945
 H         0.308001         1.897358         0.671235
 H         1.089770        -0.588497         1.220868
