19
Iteration:   441
 C        -1.495581        -1.840149        -0.707639
 C        -1.276399        -0.398200        -0.933620
 C        -2.117395         0.389152        -1.836710
 C        -0.606652         0.363164        -2.107455
 C         0.505908         1.329163        -1.514493
 C         0.270867         1.015294         0.021119
 O        -0.960495         0.276904         0.239800
 C         1.510184         0.204539         0.481035
 O         2.620591         0.204310         0.020761
 H        -2.413696        -1.904374        -0.202855
 H        -1.597619        -2.433839        -1.615775
 H        -0.806704        -2.317025        -0.046538
 H        -2.856083        -0.040071        -2.610944
 H        -2.649102         1.344795        -1.400610
 H        -0.219997        -0.271961        -2.914792
 H         1.583563         0.922638        -1.955074
 H         0.444656         2.422286        -1.757711
 H         0.192139         1.989950         0.555525
 H         1.270815        -0.680992         1.138455
