19
Iteration:  4731charge 0 multiplicity 1
 C        -1.918744        -1.862572        -1.019400
 C        -1.345517        -0.440059        -1.050586
 C        -1.935879         0.518968        -2.009044
 C        -0.588021         0.040355        -2.177139
 C         0.637332         0.731431        -1.677365
 C         0.346087         1.071702        -0.077463
 O        -0.810005         0.128218         0.200616
 C         1.466161         0.548052         0.728698
 O         2.632531         0.784122         0.694949
 H        -1.583250        -2.598595        -1.686238
 H        -1.803671        -2.465529        -0.041683
 H        -2.937669        -1.790038        -1.222683
 H        -2.642636         0.073233        -2.726682
 H        -2.019699         1.595692        -1.770939
 H        -0.311255        -0.748874        -2.894445
 H         1.483827         0.028647        -1.857794
 H         0.710904         1.652010        -2.214610
 H        -0.052868         2.097312         0.225979
 H         1.069268        -0.233022         1.456096
