19
Iteration:  4643
 C        -2.159890        -1.765290        -1.006127
 C        -1.349746        -0.497417        -1.025630
 C        -1.909877         0.672705        -1.907328
 C        -0.536893         0.032237        -2.205850
 C         0.665394         0.671564        -1.696224
 C         0.286028         0.803779        -0.152422
 O        -0.579862        -0.156732         0.214274
 C         1.478103         0.553360         0.722362
 O         2.599527         1.074048         0.690165
 H        -2.065044        -2.305716        -0.069430
 H        -3.258213        -1.422359        -1.219872
 H        -1.829251        -2.201156        -1.926591
 H        -2.873933         0.456400        -2.418890
 H        -1.897716         1.759264        -1.574906
 H        -0.527134        -0.468805        -3.248191
 H         1.526015         0.017970        -1.864528
 H         0.873029         1.662275        -2.127883
 H        -0.097292         1.914473        -0.006482
 H         1.177040        -0.248734         1.450904
