19
Iteration:  2229charge 0 multiplicity 1
 C        -1.457797        -1.784986        -0.783631
 C        -1.364792        -0.330317        -0.939710
 C        -2.135340         0.467444        -1.959085
 C        -0.660360         0.259240        -2.103062
 C         0.338237         1.219231        -1.510524
 C         0.326935         0.891854         0.015514
 O        -0.977495         0.379210         0.320816
 C         1.606897        -0.055517         0.363578
 O         2.673749         0.442711         0.196158
 H        -2.074266        -2.119384         0.083971
 H        -1.720313        -2.364201        -1.695051
 H        -0.374010        -2.078516        -0.500675
 H        -2.611318        -0.124099        -2.719962
 H        -2.665228         1.352358        -1.571995
 H        -0.163556        -0.451452        -2.819426
 H         1.423455         1.047418        -1.851737
 H         0.345426         2.321361        -1.613711
 H         0.503163         1.686015         0.626733
 H         1.345015        -0.927347         0.984489
