19
Iteration:  1120charge 0 multiplicity 1
 C        -1.673982        -1.865769        -0.786825
 C        -1.324676        -0.436890        -0.920739
 C        -2.117119         0.414397        -1.872303
 C        -0.708875         0.279885        -2.106398
 C         0.313933         1.327971        -1.567617
 C         0.331137         1.073691        -0.053611
 O        -0.748868         0.244114         0.178677
 C         1.539553         0.202965         0.436295
 O         2.801479         0.312314         0.334447
 H        -2.394595        -2.026702         0.054460
 H        -2.055933        -2.210056        -1.756525
 H        -0.778514        -2.508140        -0.449127
 H        -2.810115        -0.270773        -2.451628
 H        -2.553112         1.382090        -1.532552
 H        -0.405409        -0.392815        -2.920306
 H         1.179618         0.989668        -2.207852
 H         0.115651         2.482731        -1.765157
 H         0.339650         1.915144         0.555476
 H         1.215595        -0.728680         0.912113
