19
Iteration:  3531
 C        -1.706836        -1.867881        -0.969169
 C        -1.427325        -0.425611        -1.072200
 C        -2.102559         0.625005        -1.888066
 C        -0.608509         0.261443        -2.121801
 C         0.543626         0.853681        -1.581293
 C         0.252334         0.843676        -0.076000
 O        -0.822972         0.030049         0.175697
 C         1.547856         0.595255         0.762332
 O         2.737854         0.588476         0.415095
 H        -0.957969        -2.430030        -0.488229
 H        -2.639939        -2.050043        -0.355757
 H        -1.899644        -2.308924        -1.876594
 H        -2.764656         0.225435        -2.647533
 H        -2.340182         1.632781        -1.546254
 H        -0.572084        -0.176684        -3.072917
 H         1.435679         0.177991        -1.856380
 H         0.820519         1.826543        -2.089725
 H        -0.059279         1.917535         0.263885
 H         1.364842         0.151065         1.769250
