19
Iteration:  3158
 C        -1.405939        -1.877491        -0.722385
 C        -1.219767        -0.383039        -0.951709
 C        -2.068631         0.461559        -1.932218
 C        -0.511567         0.262118        -2.006716
 C         0.396524         1.263945        -1.453474
 C         0.258196         1.037740         0.089309
 O        -1.054686         0.358041         0.254029
 C         1.461436         0.160611         0.458010
 O         2.593240         0.235137        -0.044596
 H        -1.762064        -2.155073         0.284347
 H        -2.224119        -2.005985        -1.634196
 H        -0.465751        -2.502275        -1.042342
 H        -2.578107        -0.051457        -2.747517
 H        -2.411274         1.407562        -1.590206
 H        -0.173093        -0.471192        -2.682686
 H         1.443602         1.176344        -1.735240
 H         0.119157         2.291791        -1.691264
 H         0.272090         1.872198         0.724587
 H         1.234998        -0.669062         1.179407
