19
Iteration:  2261
 C        -1.535712        -1.895071        -0.790014
 C        -1.284008        -0.429454        -0.956004
 C        -2.147161         0.530240        -1.874560
 C        -0.625798         0.203261        -2.091376
 C         0.314905         1.306879        -1.550324
 C         0.375248         1.019045        -0.023523
 O        -0.874909         0.332267         0.270990
 C         1.473634         0.058706         0.359219
 O         2.714724         0.369819         0.245854
 H        -2.405344        -2.171171        -0.374913
 H        -1.475103        -2.535778        -1.661866
 H        -0.794482        -2.294092        -0.042838
 H        -2.827201         0.100385        -2.590757
 H        -2.397370         1.421089        -1.289130
 H        -0.331209        -0.399387        -2.991157
 H         1.421753         1.172886        -1.838607
 H        -0.057125         2.357796        -1.710031
 H         0.371536         1.917715         0.524977
 H         1.209257        -0.834335         1.014141
