19
Iteration:  4704
 C        -1.876320        -1.828043        -0.931960
 C        -1.440302        -0.379484        -1.084280
 C        -1.924050         0.655874        -1.984766
 C        -0.551214        -0.017066        -2.175413
 C         0.712231         0.739332        -1.706660
 C         0.322617         0.820726        -0.086888
 O        -0.878755         0.049134         0.171504
 C         1.485455         0.462814         0.794336
 O         2.605490         0.936335         0.617801
 H        -1.131387        -2.598200        -1.330737
 H        -2.191789        -2.069605         0.062054
 H        -2.800097        -2.012953        -1.613169
 H        -2.684246         0.272490        -2.651696
 H        -1.887752         1.705806        -1.759521
 H        -0.352593        -0.665644        -3.018982
 H         1.629013         0.176086        -1.894379
 H         0.733164         1.757443        -2.203434
 H         0.022020         1.743539         0.276934
 H         1.298815        -0.027163         1.815579
