19
Iteration:  4603
 C        -2.225904        -1.812445        -1.020605
 C        -1.436677        -0.447587        -1.085660
 C        -1.919756         0.803336        -1.795529
 C        -0.662110         0.053196        -2.270075
 C         0.704712         0.553596        -1.735874
 C         0.409693         0.681154        -0.146970
 O        -0.674430        -0.279052         0.101997
 C         1.601021         0.571181         0.754667
 O         2.650850         1.270742         0.784811
 H        -2.596569        -1.983395         0.129397
 H        -2.959850        -1.808658        -1.855391
 H        -1.633812        -2.727570        -1.196346
 H        -2.730758         0.697476        -2.500604
 H        -1.850068         1.775705        -1.293927
 H        -0.648401        -0.349012        -3.297914
 H         1.647684        -0.029375        -2.045144
 H         1.008401         1.516988        -2.122393
 H         0.050629         1.707072         0.125756
 H         1.452210         0.000132         1.674057
