19
Iteration:  1416
 C        -1.646344        -1.868564        -0.802895
 C        -1.325789        -0.374779        -0.985462
 C        -2.187324         0.504188        -1.937600
 C        -0.644717         0.272525        -2.148696
 C         0.372804         1.198334        -1.521577
 C         0.342664         0.941406        -0.026094
 O        -0.842045         0.151314         0.252313
 C         1.652016         0.372519         0.598752
 O         2.722644         0.327422         0.160261
 H        -2.561419        -2.099125        -0.378697
 H        -1.679368        -2.355336        -1.838647
 H        -0.918359        -2.292796        -0.044642
 H        -3.020190         0.093345        -2.498475
 H        -2.509795         1.368237        -1.387802
 H        -0.224962        -0.412959        -2.914771
 H         1.332331         1.123178        -1.892755
 H         0.111542         2.204117        -1.717970
 H         0.172211         1.855735         0.612812
 H         1.458230        -0.207103         1.528431
