19
Iteration:  2472charge 0 multiplicity 1
 C        -1.564079        -1.953096        -0.902739
 C        -1.339957        -0.453065        -0.904128
 C        -2.165540         0.590172        -1.734068
 C        -0.704241         0.276030        -2.070972
 C         0.525369         1.076578        -1.629699
 C         0.274819         1.015447        -0.064833
 O        -0.842127         0.244774         0.264957
 C         1.511405         0.318432         0.526834
 O         2.727564         0.375710         0.176175
 H        -2.549035        -2.101478        -0.650483
 H        -1.470384        -2.131204        -1.965287
 H        -0.929262        -2.459037        -0.266823
 H        -2.792785         0.171901        -2.531019
 H        -2.393056         1.577124        -1.261102
 H        -0.685593        -0.310551        -3.033809
 H         1.549781         0.644603        -1.727220
 H         0.356961         2.140832        -2.054469
 H         0.104411         1.916037         0.591165
 H         1.196679        -0.334077         1.389287
