19
Iteration:  3768charge 0 multiplicity 1
 C        -2.318833        -1.656171        -0.973402
 C        -1.293526        -0.471662        -1.012742
 C        -1.856111         0.756049        -1.766425
 C        -0.613525        -0.092118        -2.274611
 C         0.678191         0.651015        -1.792018
 C         0.439380         0.752681        -0.252174
 O        -0.492407        -0.296835         0.097251
 C         1.611086         0.418405         0.650102
 O         2.388504         1.317889         0.918194
 H        -2.919322        -1.709325        -0.047242
 H        -3.151634        -1.355533        -1.550296
 H        -1.813454        -2.686534        -1.156793
 H        -2.763399         0.744772        -2.395356
 H        -1.817879         1.748688        -1.299391
 H        -0.661215        -0.743131        -3.169118
 H         1.600141         0.134430        -2.085946
 H         0.779787         1.631048        -2.282049
 H        -0.000752         1.745657         0.135372
 H         1.668729        -0.649703         0.870916
