19
Iteration:  2309charge 0 multiplicity 1
 C        -1.601649        -1.811351        -0.771610
 C        -1.319192        -0.436453        -0.970622
 C        -2.118437         0.449459        -1.868009
 C        -0.634838         0.310764        -2.138082
 C         0.315429         1.272861        -1.540318
 C         0.378566         0.975286        -0.027518
 O        -0.801103         0.189821         0.220392
 C         1.574817         0.242373         0.549121
 O         2.673597         0.340648         0.162628
 H        -2.663465        -1.949333        -0.186135
 H        -1.892475        -2.421183        -1.655541
 H        -0.977944        -2.411414        -0.174375
 H        -2.687384        -0.113372        -2.640980
 H        -2.386954         1.470358        -1.582431
 H        -0.103107        -0.250263        -2.888748
 H         1.236544         1.136899        -2.058809
 H        -0.081746         2.293026        -1.505461
 H         0.244411         1.767810         0.670560
 H         1.227007        -0.557736         1.284861
