19
Iteration:  2068charge 0 multiplicity 1
 C        -1.549308        -1.884985        -0.817952
 C        -1.245524        -0.450109        -0.871302
 C        -2.064861         0.488358        -1.807195
 C        -0.567507         0.271332        -2.102472
 C         0.392891         1.272989        -1.589850
 C         0.290203         1.065010        -0.015545
 O        -0.839111         0.199413         0.272143
 C         1.405838         0.269210         0.471090
 O         2.626913         0.267302         0.112730
 H        -2.559621        -2.115529        -0.284136
 H        -1.684584        -2.268852        -1.857824
 H        -0.841779        -2.384430        -0.276074
 H        -2.795158         0.131144        -2.548820
 H        -2.291313         1.499815        -1.478746
 H        -0.429132        -0.405806        -3.005108
 H         1.450570         1.394756        -1.774116
 H         0.047495         2.317285        -1.762352
 H         0.344606         1.988585         0.559981
 H         1.219364        -0.524146         1.257797
