19
Iteration:   774
 C        -1.433140        -1.839375        -0.683428
 C        -1.270142        -0.411564        -1.023383
 C        -2.174160         0.430146        -1.946984
 C        -0.609754         0.304280        -2.098548
 C         0.424456         1.354813        -1.415654
 C         0.281960         0.926402         0.066581
 O        -1.013875         0.408405         0.194696
 C         1.579556         0.073900         0.576192
 O         2.659668         0.219153        -0.058469
 H        -2.300165        -1.955425        -0.071861
 H        -1.460306        -2.448284        -1.619367
 H        -0.580771        -2.084734        -0.119894
 H        -2.897811        -0.106505        -2.660338
 H        -2.477610         1.425728        -1.536803
 H        -0.293316        -0.367906        -2.871557
 H         1.479873         1.307950        -1.749788
 H        -0.113750         2.254674        -1.547057
 H         0.211571         1.787775         0.846265
 H         1.513847        -0.431318         1.629286
