19
Iteration:  1725
 C        -1.326485        -1.881912        -0.839902
 C        -1.305854        -0.369268        -0.903796
 C        -2.123374         0.481915        -1.917453
 C        -0.603008         0.312342        -2.053456
 C         0.349433         1.236463        -1.464816
 C         0.257026         1.048303         0.051694
 O        -0.942938         0.322161         0.276550
 C         1.487071         0.220707         0.570101
 O         2.572189         0.133082        -0.083777
 H        -2.210519        -2.140209        -0.221443
 H        -1.300041        -2.537806        -1.697911
 H        -0.469542        -2.085503        -0.155257
 H        -2.673291        -0.016713        -2.715938
 H        -2.593811         1.427581        -1.559546
 H        -0.132881        -0.308996        -2.822981
 H         1.390266         0.786340        -1.723299
 H         0.266101         2.332672        -1.760434
 H         0.372437         2.019671         0.782814
 H         1.457643         0.138341         1.661426
