19
Iteration:  3818
 C        -2.259766        -1.726780        -0.817632
 C        -1.443604        -0.449969        -1.140740
 C        -1.937986         0.791659        -1.830569
 C        -0.678419         0.146038        -2.318343
 C         0.768334         0.448653        -1.804449
 C         0.499734         0.637648        -0.304528
 O        -0.503473        -0.247891         0.036245
 C         1.694787         0.449959         0.575994
 O         2.338368         1.368196         1.120632
 H        -2.071489        -1.949273         0.271397
 H        -3.336583        -1.583586        -0.827872
 H        -1.902190        -2.550307        -1.360123
 H        -2.854790         0.691965        -2.468727
 H        -1.924426         1.772909        -1.322947
 H        -0.583178        -0.311948        -3.276452
 H         1.406102        -0.416172        -2.140063
 H         1.169382         1.348202        -2.232628
 H         0.153074         1.626231        -0.060766
 H         1.879284        -0.616366         0.802868
