19
Iteration:   191charge 0 multiplicity 1
 C        -1.659877        -1.949501        -0.968412
 C        -1.393819        -0.422847        -0.886401
 C        -2.093799         0.512915        -1.816757
 C        -0.618839         0.318361        -2.057528
 C         0.483026         1.198560        -1.553105
 C         0.371545         1.045196        -0.057603
 O        -0.952065         0.201601         0.293414
 C         1.628541         0.405908         0.650026
 O         2.697765         0.218944         0.053686
 H        -2.099650        -2.177584         0.111031
 H        -2.245251        -2.098482        -1.971999
 H        -0.658275        -2.566321        -0.959647
 H        -2.687507        -0.184095        -2.442883
 H        -2.600059         1.426355        -1.313077
 H        -0.423357        -0.208057        -2.984158
 H         1.411459         0.950429        -1.964025
 H         0.130618         2.209703        -1.709828
 H         0.130645         1.972934         0.459574
 H         1.514200         0.125801         1.687490
