19
Iteration:  4010
 C        -1.947173        -1.807504        -0.889430
 C        -1.394196        -0.423438        -1.047458
 C        -1.979140         0.769209        -1.879643
 C        -0.656698         0.118404        -2.309689
 C         0.764687         0.567585        -1.700583
 C         0.366597         0.731866        -0.147082
 O        -0.916767         0.012831         0.190952
 C         1.649471         0.341828         0.553522
 O         2.573532         1.129575         0.803204
 H        -2.337691        -1.994694        -1.842351
 H        -1.195463        -2.653216        -0.619491
 H        -2.671797        -1.782380        -0.083099
 H        -2.769136         0.587330        -2.555111
 H        -1.891672         1.627177        -1.297323
 H        -0.671463        -0.456295        -3.207884
 H         1.349063        -0.305661        -1.890452
 H         1.031640         1.567445        -2.091420
 H         0.249582         1.774520        -0.055796
 H         1.757470        -0.712205         0.990153
