19
Iteration:   226charge 0 multiplicity 1
 C        -1.591831        -1.842611        -0.775244
 C        -1.275645        -0.367108        -0.920212
 C        -2.017467         0.564467        -1.839485
 C        -0.591761         0.266079        -2.144429
 C         0.349841         1.273669        -1.547077
 C         0.347488         1.072504        -0.040901
 O        -0.747351         0.087684         0.259895
 C         1.433212         0.227138         0.542231
 O         2.579462         0.255493         0.092624
 H        -2.411527        -2.033005         0.068511
 H        -2.082866        -2.404435        -1.592492
 H        -0.603904        -2.433982        -0.518082
 H        -2.850942         0.017561        -2.275261
 H        -2.376603         1.542167        -1.534729
 H        -0.299135        -0.305985        -3.010157
 H         1.362374         1.386839        -1.909316
 H        -0.090176         2.314558        -1.734894
 H         0.057223         2.034322         0.423479
 H         1.146743        -0.458619         1.330488
