19
Iteration:  3796charge 0 multiplicity 1
 C        -2.283929        -1.654925        -0.821354
 C        -1.358571        -0.477714        -1.061281
 C        -1.856203         0.805203        -1.835801
 C        -0.654575        -0.002183        -2.360891
 C         0.686386         0.610767        -1.878717
 C         0.418670         0.691160        -0.292415
 O        -0.520995        -0.390262         0.027706
 C         1.649410         0.501262         0.680427
 O         2.435137         1.340709         1.093900
 H        -2.327933        -1.848243         0.292399
 H        -3.367038        -1.467583        -0.943935
 H        -1.939015        -2.573536        -1.265801
 H        -2.796953         0.705636        -2.456726
 H        -1.755724         1.851798        -1.502275
 H        -0.707787        -0.400709        -3.379487
 H         1.481430        -0.182601        -2.131558
 H         0.941844         1.544521        -2.357355
 H        -0.105806         1.587717        -0.019851
 H         1.753438        -0.610658         0.872202
