19
Iteration:  2684charge 0 multiplicity 1
 C        -1.570874        -1.876384        -0.739873
 C        -1.313520        -0.373025        -0.936233
 C        -2.181865         0.474894        -1.796419
 C        -0.640445         0.251650        -2.193791
 C         0.273224         1.268584        -1.635791
 C         0.345400         1.027082        -0.111886
 O        -0.710903         0.187540         0.216850
 C         1.527661         0.213637         0.494021
 O         2.728874         0.291885         0.345360
 H        -2.603931        -1.964071        -0.283604
 H        -1.784980        -2.148408        -1.731835
 H        -0.890093        -2.481377        -0.240998
 H        -2.905511         0.039102        -2.545116
 H        -2.339871         1.529107        -1.495888
 H        -0.465459        -0.216554        -3.188901
 H         1.324817         1.414855        -2.082959
 H        -0.084304         2.422945        -1.707629
 H         0.138659         1.930773         0.341104
 H         1.064714        -0.554704         1.176768
