19
Iteration:   380charge 0 multiplicity 1
 C        -1.430738        -1.784824        -0.757566
 C        -1.331415        -0.367242        -0.940629
 C        -2.145046         0.394836        -1.932281
 C        -0.621708         0.261776        -2.115511
 C         0.313665         1.346644        -1.465462
 C         0.319176         0.994381         0.024914
 O        -0.942449         0.371330         0.259401
 C         1.538344         0.106431         0.435416
 O         2.733542         0.179139         0.111507
 H        -2.148189        -1.720197         0.194126
 H        -1.988444        -2.281257        -1.591405
 H        -0.411250        -2.335311        -0.514714
 H        -2.663619        -0.325296        -2.480815
 H        -2.458693         1.342817        -1.748855
 H        -0.355765        -0.246596        -3.061095
 H         1.269297         1.185595        -1.772817
 H         0.023051         2.387406        -1.602972
 H         0.253794         1.851288         0.700740
 H         1.119840        -0.604147         1.143302
