19
Iteration:  1383charge 0 multiplicity 1
 C        -1.746918        -1.875690        -0.734666
 C        -1.287299        -0.459035        -1.008107
 C        -2.131686         0.484210        -1.902843
 C        -0.629303         0.296641        -2.171394
 C         0.328886         1.283191        -1.548450
 C         0.347030         0.964983        -0.037567
 O        -0.776285         0.150079         0.209069
 C         1.564450         0.355681         0.598334
 O         2.774382         0.313959         0.196479
 H        -2.671422        -1.878072        -0.255322
 H        -1.860016        -2.433659        -1.728745
 H        -1.044268        -2.643612        -0.331292
 H        -2.834397        -0.027081        -2.557372
 H        -2.526355         1.253837        -1.266869
 H        -0.209660        -0.170274        -3.062018
 H         1.287328         1.283269        -1.928566
 H        -0.075282         2.245891        -1.601476
 H         0.279377         2.028282         0.557898
 H         1.357727        -0.199852         1.527810
