19
Iteration:  3093charge 0 multiplicity 1
 C        -1.411624        -1.949336        -0.781102
 C        -1.256520        -0.375690        -0.883259
 C        -2.102328         0.411038        -1.868199
 C        -0.565473         0.315231        -2.151515
 C         0.267371         1.470455        -1.517361
 C         0.324411         1.151204        -0.000543
 O        -0.910124         0.404565         0.300249
 C         1.458642         0.175092         0.453194
 O         2.626085        -0.021352         0.087582
 H        -2.345749        -2.462777        -0.656658
 H        -0.612236        -2.412065        -1.553446
 H        -0.890038        -2.386749         0.147190
 H        -2.711963        -0.245001        -2.494691
 H        -2.582240         1.343216        -1.654169
 H        -0.033794        -0.310927        -2.831579
 H         1.233167         1.611711        -2.041568
 H        -0.382587         2.344261        -1.715423
 H         0.296662         2.046171         0.586857
 H         1.001028        -0.549859         1.182567
