19
Iteration:   863
 C        -1.578406        -1.896767        -0.747522
 C        -1.291777        -0.452549        -1.050029
 C        -2.144558         0.354050        -1.880710
 C        -0.681486         0.356241        -2.123252
 C         0.330061         1.434817        -1.510571
 C         0.402144         1.032854        -0.021602
 O        -0.894566         0.290578         0.173870
 C         1.632457         0.300468         0.608510
 O         2.684398         0.091019         0.175362
 H        -2.174039        -1.932246         0.189978
 H        -2.037673        -2.519927        -1.581285
 H        -0.662880        -2.389238        -0.463159
 H        -2.631520        -0.100946        -2.752509
 H        -2.651398         1.265420        -1.473038
 H        -0.288473        -0.045230        -3.067489
 H         1.201764         1.252466        -2.097959
 H        -0.105458         2.432632        -1.652335
 H         0.355418         1.983723         0.643021
 H         1.342585        -0.122256         1.555189
