19
Iteration:  2934charge 0 multiplicity 1
 C        -1.422975        -1.875416        -0.599598
 C        -1.308759        -0.331048        -1.019905
 C        -2.058518         0.406527        -1.998300
 C        -0.483736         0.278746        -2.170864
 C         0.302873         1.451807        -1.426795
 C         0.307914         1.006049         0.090244
 O        -0.933666         0.280547         0.191930
 C         1.497952         0.193720         0.507076
 O         2.571549         0.098617         0.035916
 H        -1.722194        -1.974640         0.550290
 H        -2.202491        -2.294121        -1.328425
 H        -0.445519        -2.393982        -0.710733
 H        -2.846338         0.028671        -2.711069
 H        -2.351541         1.402351        -1.574183
 H        -0.164765        -0.258065        -3.050973
 H         1.264421         1.555386        -1.835897
 H        -0.382186         2.212456        -1.630417
 H         0.338348         1.846912         0.723886
 H         1.290698        -0.277099         1.519315
