19
Iteration:  1503
 C        -1.597007        -1.834021        -0.726130
 C        -1.351426        -0.359779        -1.007951
 C        -2.200544         0.422905        -1.948372
 C        -0.579435         0.275307        -2.138523
 C         0.308675         1.336837        -1.506264
 C         0.371566         0.928585        -0.043941
 O        -0.869000         0.177602         0.241894
 C         1.564738         0.222519         0.601246
 O         2.784370         0.297048         0.156657
 H        -1.971106        -1.897350         0.235580
 H        -2.337587        -2.387612        -1.395540
 H        -0.667791        -2.482580        -0.635123
 H        -2.717655         0.006147        -2.805718
 H        -2.584385         1.432049        -1.746609
 H        -0.224055        -0.109984        -3.150828
 H         1.288573         1.496138        -1.902241
 H        -0.163933         2.304173        -1.753487
 H         0.287885         1.679354         0.621633
 H         1.255339        -0.063349         1.583253
