19
Iteration:  1972charge 0 multiplicity 1
 C        -1.449241        -1.885093        -0.830245
 C        -1.286756        -0.459622        -0.901639
 C        -2.050406         0.513651        -1.804838
 C        -0.507769         0.221043        -2.049767
 C         0.435956         1.228422        -1.488562
 C         0.269979         1.036416        -0.038196
 O        -0.900934         0.309012         0.301357
 C         1.376971         0.130521         0.413280
 O         2.558571         0.353939         0.060394
 H        -2.147537        -2.041774         0.101591
 H        -2.045178        -2.304519        -1.692305
 H        -0.533393        -2.304657        -0.530523
 H        -2.737454         0.286823        -2.660799
 H        -2.196229         1.549674        -1.469852
 H        -0.347332        -0.386581        -3.006959
 H         1.423838         0.992094        -1.909221
 H         0.385656         2.269616        -1.914525
 H         0.139350         1.962430         0.633738
 H         1.071490        -0.568267         1.250169
