19
Iteration:  4486charge 0 multiplicity 1
 C        -2.203283        -1.735241        -0.920966
 C        -1.393788        -0.490977        -1.062336
 C        -1.941569         0.741198        -1.849281
 C        -0.610955         0.081255        -2.241147
 C         0.637950         0.677007        -1.718921
 C         0.398569         0.833610        -0.241041
 O        -0.544297        -0.227814         0.141910
 C         1.665287         0.364698         0.490874
 O         2.462155         1.207935         0.980196
 H        -3.267480        -1.536435        -0.839067
 H        -2.031538        -2.651751        -1.466468
 H        -2.180505        -2.144837         0.188207
 H        -2.751451         0.267422        -2.392966
 H        -2.020522         1.822851        -1.635710
 H        -0.485614        -0.265517        -3.306900
 H         1.415808        -0.050571        -1.919027
 H         1.039994         1.538840        -2.313133
 H         0.110346         1.859347         0.104723
 H         1.872044        -0.679953         0.355740
