19
Iteration:  1721
 C        -1.318984        -1.873669        -0.813697
 C        -1.311909        -0.377644        -0.921350
 C        -2.108034         0.492863        -1.945754
 C        -0.595272         0.309643        -2.054776
 C         0.361493         1.233527        -1.449114
 C         0.239815         1.037377         0.070503
 O        -0.951400         0.323761         0.303505
 C         1.537185         0.232079         0.527195
 O         2.543153         0.135896        -0.069232
 H        -2.145911        -2.160375        -0.247546
 H        -1.452787        -2.445142        -1.751735
 H        -0.429894        -1.978246        -0.163464
 H        -2.663732        -0.066014        -2.700244
 H        -2.616637         1.369326        -1.607716
 H        -0.279058        -0.234768        -2.939114
 H         1.296486         0.758633        -1.697632
 H         0.334968         2.259320        -1.774687
 H         0.224657         1.883883         0.674284
 H         1.605519         0.091680         1.686468
