19
Iteration:  2801charge 0 multiplicity 1
 C        -1.642328        -1.907087        -0.724173
 C        -1.261868        -0.426680        -0.935466
 C        -2.123296         0.455089        -1.883668
 C        -0.508007         0.271080        -2.132806
 C         0.400766         1.390215        -1.539541
 C         0.313107         1.017826         0.006931
 O        -0.866609         0.209420         0.233463
 C         1.539611         0.239953         0.497761
 O         2.645581         0.269657         0.113028
 H        -2.698943        -2.008476        -0.257632
 H        -1.787477        -2.459397        -1.616711
 H        -0.891206        -2.522209        -0.063775
 H        -2.592472        -0.228913        -2.595055
 H        -2.654261         1.351937        -1.542492
 H        -0.187276        -0.152132        -3.119738
 H         1.324309         1.381072        -2.100224
 H         0.037455         2.345641        -1.699532
 H         0.135479         1.965504         0.745307
 H         1.244658        -0.338790         1.424411
