19
Iteration:  2729charge 0 multiplicity 1
 C        -1.668562        -1.878635        -0.750258
 C        -1.268288        -0.444387        -1.004734
 C        -2.082164         0.525776        -1.971328
 C        -0.596970         0.221157        -2.118648
 C         0.436303         1.219851        -1.429904
 C         0.301103         0.975762         0.051793
 O        -0.935279         0.228012         0.254076
 C         1.585688         0.254231         0.517663
 O         2.697997         0.390240         0.078228
 H        -2.048299        -1.989645         0.265785
 H        -2.412018        -2.338802        -1.435304
 H        -0.827820        -2.502096        -0.760691
 H        -2.634444        -0.192021        -2.598223
 H        -2.567532         1.475985        -1.653355
 H        -0.400833        -0.257456        -3.074738
 H         1.535943         1.205574        -1.761529
 H        -0.041170         2.322694        -1.672928
 H         0.361792         1.813996         0.644042
 H         1.352262        -0.427458         1.380613
