19
Iteration:  1906
 C        -1.546289        -1.880547        -0.721608
 C        -1.339267        -0.415340        -1.038812
 C        -2.121642         0.368295        -1.985777
 C        -0.631202         0.317251        -2.093170
 C         0.242368         1.406477        -1.485824
 C         0.367485         0.981679         0.000283
 O        -0.900006         0.277352         0.271769
 C         1.616169         0.204588         0.562993
 O         2.730789         0.199474         0.098581
 H        -2.598142        -1.974753        -0.286806
 H        -1.666816        -2.597554        -1.528738
 H        -0.920878        -2.048071         0.052888
 H        -2.567665        -0.266945        -2.725172
 H        -2.335427         1.406106        -1.808855
 H        -0.058094        -0.074793        -3.001824
 H         1.168560         1.601335        -1.940811
 H        -0.207467         2.398001        -1.472368
 H         0.551382         2.008911         0.582775
 H         1.295827        -0.391214         1.531901
