19
Iteration:  1640
 C        -1.522727        -1.866317        -0.740085
 C        -1.210494        -0.368582        -0.895162
 C        -2.114280         0.375507        -1.935396
 C        -0.531978         0.257040        -2.062190
 C         0.226009         1.436777        -1.481955
 C         0.325608         1.064624        -0.019168
 O        -0.840383         0.285135         0.245130
 C         1.507770         0.188690         0.442493
 O         2.626617         0.148080         0.114627
 H        -2.166880        -2.025905         0.278752
 H        -1.987796        -2.148723        -1.700010
 H        -0.678974        -2.552959        -0.740238
 H        -2.685963        -0.138065        -2.724763
 H        -2.581749         1.326620        -1.582500
 H        -0.140044        -0.146067        -3.015610
 H         1.238362         1.582639        -1.839338
 H        -0.217503         2.393789        -1.737326
 H         0.239508         1.815733         0.670494
 H         1.249790        -0.609023         1.122182
