19
Iteration:  4782
 C        -1.793073        -1.807174        -0.706300
 C        -1.361647        -0.425709        -1.134478
 C        -1.887135         0.587870        -2.151889
 C        -0.475558         0.007325        -2.282503
 C         0.587949         0.948601        -1.701344
 C         0.292172         0.908290        -0.168025
 O        -0.853869         0.086684         0.159210
 C         1.411610         0.424617         0.883661
 O         2.571407         0.718849         0.662671
 H        -2.517340        -2.376121        -1.399248
 H        -1.019325        -2.622536        -0.784766
 H        -2.437268        -1.734310         0.270865
 H        -2.631669         0.142229        -2.845328
 H        -1.980059         1.688604        -1.868055
 H        -0.313358        -0.715230        -3.225264
 H         1.565662         0.530423        -1.789770
 H         0.539577         2.042934        -2.097650
 H        -0.035459         1.939738         0.108109
 H         1.063416        -0.017807         1.812485
