19
Iteration:  3234charge 0 multiplicity 1
 C        -1.583402        -1.906914        -0.729957
 C        -1.245353        -0.439311        -1.037517
 C        -2.042292         0.459567        -2.048093
 C        -0.627280         0.311724        -2.097805
 C         0.393001         1.331279        -1.462176
 C         0.315891         0.958976        -0.032023
 O        -0.961101         0.267681         0.242828
 C         1.551041         0.207044         0.594716
 O         2.689068         0.320335         0.137312
 H        -0.675402        -2.447985        -0.514582
 H        -2.241040        -1.858367         0.220646
 H        -2.319894        -2.458311        -1.421636
 H        -2.633517        -0.098951        -2.745906
 H        -2.485306         1.370678        -1.658473
 H        -0.261519        -0.308219        -2.870718
 H         1.363562         1.164996        -1.898171
 H         0.014285         2.310618        -1.616513
 H         0.114701         1.707375         0.800589
 H         1.344235        -0.370367         1.559356
