19
Iteration:  2891
 C        -1.367261        -1.827783        -0.803266
 C        -1.309746        -0.413813        -0.904707
 C        -2.088446         0.412668        -1.873263
 C        -0.579659         0.230529        -2.116681
 C         0.496551         1.251667        -1.512313
 C         0.280204         1.072292         0.053034
 O        -0.949620         0.419813         0.256354
 C         1.404677         0.172988         0.516496
 O         2.545229         0.213065         0.023743
 H        -1.895940        -2.324411         0.183948
 H        -2.074359        -2.259683        -1.680001
 H        -0.263985        -2.099433        -0.858737
 H        -2.780692        -0.154176        -2.536498
 H        -2.491561         1.326454        -1.365463
 H        -0.228821        -0.350879        -2.948012
 H         1.461219         0.889913        -1.727524
 H         0.414065         2.268255        -1.680739
 H         0.176306         1.983820         0.857696
 H         1.114547        -0.696683         1.146527
