19
Iteration:   814charge 0 multiplicity 1
 C        -1.381450        -1.879582        -0.803724
 C        -1.308257        -0.327672        -0.917767
 C        -2.153670         0.490836        -1.908707
 C        -0.549063         0.214891        -2.024428
 C         0.446334         1.284487        -1.526450
 C         0.255538         1.124943         0.021508
 O        -0.891449         0.321456         0.330298
 C         1.370340         0.129405         0.451209
 O         2.591834         0.197186         0.038007
 H        -1.990356        -2.189838         0.083610
 H        -1.807763        -2.298437        -1.706699
 H        -0.305517        -2.392993        -0.659622
 H        -2.898988        -0.037028        -2.489493
 H        -2.499627         1.431875        -1.551272
 H        -0.179644        -0.453176        -2.835547
 H         1.524774         0.978119        -1.800927
 H         0.308418         2.338052        -1.875239
 H         0.309207         2.048778         0.504244
 H         1.172551        -0.682336         1.128219
