19
Iteration:  2791
 C        -1.655690        -1.908121        -0.786288
 C        -1.253418        -0.431857        -0.921527
 C        -2.017393         0.456609        -1.911298
 C        -0.569426         0.180493        -2.091363
 C         0.399853         1.380963        -1.527440
 C         0.281219         1.058311         0.028460
 O        -0.885206         0.239981         0.259220
 C         1.504978         0.223952         0.535027
 O         2.674973         0.308187         0.047005
 H        -2.552907        -2.041140        -0.058508
 H        -1.777803        -2.287354        -1.781774
 H        -0.779836        -2.514397        -0.310616
 H        -2.812113         0.038606        -2.551302
 H        -2.305868         1.469256        -1.567887
 H        -0.448960        -0.495242        -2.953186
 H         1.447162         1.277448        -1.596443
 H        -0.043007         2.265423        -1.782663
 H         0.079932         2.043878         0.674808
 H         1.284325        -0.565132         1.305961
