19
Iteration:  2464
 C        -1.590722        -1.974605        -0.890651
 C        -1.322964        -0.396054        -0.928639
 C        -2.189532         0.543240        -1.774463
 C        -0.708312         0.297134        -2.116441
 C         0.467860         1.109101        -1.639741
 C         0.335491         1.081433        -0.068343
 O        -0.865874         0.199089         0.275509
 C         1.569678         0.352981         0.566474
 O         2.741428         0.336772         0.213517
 H        -2.760592        -2.170759        -0.630564
 H        -1.433581        -2.190299        -1.906792
 H        -0.932045        -2.609323        -0.329637
 H        -3.017929         0.161222        -2.378965
 H        -2.419422         1.415495        -1.206352
 H        -0.574495        -0.403326        -2.950408
 H         1.400687         0.669412        -1.999144
 H         0.489880         2.207022        -1.886238
 H         0.289138         2.085760         0.536285
 H         1.220252        -0.408636         1.342140
