19
Iteration:  3048
 C        -1.303854        -1.857001        -0.697809
 C        -1.277127        -0.402391        -0.965910
 C        -2.098012         0.408255        -1.902559
 C        -0.563798         0.314062        -2.108047
 C         0.361976         1.429470        -1.488539
 C         0.274056         1.089138         0.040448
 O        -0.947423         0.347619         0.284676
 C         1.505897         0.207400         0.538407
 O         2.530553         0.013717        -0.041958
 H        -2.353136        -2.132111        -0.803028
 H        -0.577814        -2.468117        -1.460985
 H        -1.134321        -2.374365         0.298986
 H        -2.782545        -0.090560        -2.534256
 H        -2.433387         1.407563        -1.708871
 H        -0.475838        -0.226446        -3.031570
 H         1.412913         1.325415        -1.825306
 H        -0.062170         2.433737        -1.593434
 H         0.203819         2.007863         0.606678
 H         1.082780        -0.449779         1.360788
