19
Iteration:  3925
 C        -2.230654        -1.696063        -0.703159
 C        -1.415328        -0.498016        -1.090645
 C        -1.918360         0.671807        -1.897449
 C        -0.592121         0.039776        -2.254367
 C         0.719710         0.728595        -1.839415
 C         0.450447         0.746855        -0.281808
 O        -0.525732        -0.136078         0.016898
 C         1.624931         0.354953         0.583702
 O         2.363993         1.177035         1.032091
 H        -3.207676        -1.372020        -0.210220
 H        -2.454124        -2.398587        -1.610715
 H        -1.759380        -2.297658         0.045762
 H        -2.739678         0.588607        -2.645656
 H        -1.955486         1.672016        -1.452049
 H        -0.498322        -0.531138        -3.138595
 H         1.600135         0.091149        -2.242378
 H         0.924669         1.818587        -2.127595
 H         0.182247         1.843856         0.058639
 H         1.842403        -0.747751         0.547689
