19
Iteration:  4168
 C        -2.009893        -1.845092        -1.019964
 C        -1.363397        -0.492223        -1.028103
 C        -1.882202         0.685787        -1.840147
 C        -0.576548         0.047526        -2.189952
 C         0.696666         0.686142        -1.587669
 C         0.291350         0.924777        -0.113347
 O        -0.825041        -0.036609         0.154151
 C         1.456483         0.658666         0.729364
 O         2.672034         0.821197         0.531096
 H        -2.899573        -2.028281        -1.624945
 H        -1.378625        -2.584350        -1.311454
 H        -2.221398        -2.005079        -0.036993
 H        -2.705008         0.587155        -2.567777
 H        -1.878763         1.737015        -1.484151
 H        -0.332917        -0.572115        -3.008735
 H         1.476273        -0.075481        -1.625412
 H         0.956972         1.548291        -2.143060
 H         0.048643         2.079727        -0.024432
 H         1.042390         0.264192         1.662145
