19
Iteration:  3807charge 0 multiplicity 1
 C        -2.264105        -1.732758        -0.756267
 C        -1.408688        -0.465031        -1.120559
 C        -1.895977         0.860468        -1.872695
 C        -0.644261         0.132261        -2.374937
 C         0.717566         0.508640        -1.899665
 C         0.450098         0.682119        -0.291344
 O        -0.529543        -0.380295         0.072755
 C         1.673604         0.503623         0.648455
 O         2.399511         1.340179         1.114678
 H        -2.115013        -1.932908         0.351696
 H        -3.251419        -1.424237        -1.122112
 H        -2.127839        -2.604823        -1.340852
 H        -2.758275         0.558811        -2.548816
 H        -1.986309         1.805058        -1.316414
 H        -0.895595        -0.528495        -3.176861
 H         1.614460        -0.202715        -2.050132
 H         1.055102         1.484659        -2.161360
 H         0.093319         1.676168        -0.279928
 H         1.926890        -0.562683         0.863129
