19
Iteration:    86
 C        -1.852672        -1.866291        -0.920840
 C        -1.323768        -0.422779        -0.959043
 C        -2.175960         0.632340        -1.814519
 C        -0.742203         0.281249        -2.133284
 C         0.384945         1.125148        -1.621692
 C         0.387343         0.915175        -0.127203
 O        -0.711325        -0.057794         0.245476
 C         1.662060         0.545798         0.643402
 O         2.822802         0.376143         0.294239
 H        -2.661197        -1.997007        -0.202626
 H        -2.232444        -2.157196        -1.822062
 H        -1.094968        -2.579640        -0.666573
 H        -3.014860         0.117871        -2.293161
 H        -2.536987         1.580481        -1.333942
 H        -0.539909        -0.217415        -3.066203
 H         1.333378         0.691397        -2.102038
 H         0.377869         2.182413        -1.906315
 H         0.157388         1.846930         0.467810
 H         1.371165         0.389039         1.680519
