19
Iteration:  2505
 C        -1.555773        -1.865940        -0.790760
 C        -1.345873        -0.393971        -0.940668
 C        -2.088704         0.654190        -1.849789
 C        -0.705839         0.224862        -2.203164
 C         0.514137         1.098064        -1.576426
 C         0.282056         0.881835         0.063849
 O        -0.853981         0.144412         0.280266
 C         1.517120         0.236523         0.610639
 O         2.643761         0.487131         0.066591
 H        -2.350237        -2.059502        -0.174584
 H        -1.809451        -2.332853        -1.713539
 H        -0.753732        -2.411834        -0.429675
 H        -2.999037         0.504830        -2.462257
 H        -2.170876         1.673909        -1.453011
 H        -0.462330        -0.449528        -3.057062
 H         1.575474         0.920692        -1.847574
 H         0.383274         2.162947        -1.973218
 H         0.089901         1.829894         0.537007
 H         1.457625        -0.483667         1.449034
