19
Iteration:  3090charge 0 multiplicity 1
 C        -1.403628        -1.949342        -0.800749
 C        -1.237986        -0.365184        -0.839360
 C        -2.115846         0.391102        -1.871855
 C        -0.566264         0.299132        -2.121747
 C         0.270227         1.483752        -1.538410
 C         0.336694         1.135130        -0.018868
 O        -0.907221         0.413214         0.298137
 C         1.481896         0.185806         0.454755
 O         2.590675        -0.023049         0.095181
 H        -2.448097        -2.410012        -0.696506
 H        -0.598791        -2.409354        -1.592781
 H        -0.939696        -2.451730         0.160092
 H        -2.667029        -0.206002        -2.550324
 H        -2.564625         1.355175        -1.630108
 H        -0.020323        -0.247329        -2.966979
 H         1.212967         1.677471        -2.041154
 H        -0.355656         2.335142        -1.655403
 H         0.261000         2.008746         0.564255
 H         1.005361        -0.574774         1.141301
