19
Iteration:  4312
 C        -2.098367        -1.784814        -0.757441
 C        -1.412369        -0.437772        -1.037138
 C        -2.077490         0.539846        -1.952141
 C        -0.607414        -0.030031        -2.235710
 C         0.525602         0.914665        -1.881760
 C         0.520153         0.907539        -0.276698
 O        -0.726986         0.101488         0.098586
 C         1.773429         0.346128         0.452326
 O         2.602108         0.874430         1.189298
 H        -1.850741        -2.469576        -1.514639
 H        -1.783794        -2.271121         0.116215
 H        -3.229373        -1.768129        -0.612780
 H        -2.853260         0.026067        -2.522961
 H        -2.164893         1.632474        -1.856655
 H        -0.728223        -0.551306        -3.245664
 H         1.435150         0.483104        -2.265545
 H         0.372305         1.967059        -2.297480
 H         0.312628         1.894449         0.283980
 H         2.019618        -0.526391        -0.203823
