19
Iteration:   933charge 0 multiplicity 1
 C        -1.554059        -1.917272        -0.898664
 C        -1.279946        -0.404147        -0.896319
 C        -1.937903         0.580630        -1.737419
 C        -0.526773         0.171080        -2.043561
 C         0.446433         1.178569        -1.590503
 C         0.227455         1.098679        -0.033384
 O        -0.930307         0.204006         0.342706
 C         1.409157         0.302422         0.476629
 O         2.563357         0.287646         0.009711
 H        -2.279471        -2.210561        -0.182476
 H        -1.622515        -2.395757        -1.807180
 H        -0.708950        -2.405039        -0.414565
 H        -2.760458         0.426685        -2.408521
 H        -1.825337         1.539809        -1.268439
 H        -0.310374        -0.370973        -2.940572
 H         1.502235         0.836203        -1.647103
 H         0.244647         2.292371        -2.056131
 H         0.052863         2.080941         0.621404
 H         1.162923        -0.296381         1.330136
