19
Iteration:  4515charge 0 multiplicity 1
 C        -2.246801        -1.682925        -1.072577
 C        -1.453174        -0.449321        -1.053732
 C        -1.951616         0.706587        -1.795494
 C        -0.645917         0.005293        -2.190081
 C         0.629409         0.613765        -1.711119
 C         0.461305         0.657695        -0.196719
 O        -0.670539        -0.239089         0.106026
 C         1.823397         0.436957         0.603276
 O         2.553668         1.361348         0.935528
 H        -3.419541        -1.576230        -1.094997
 H        -2.017742        -2.381109        -1.906746
 H        -2.136582        -2.066190        -0.101489
 H        -2.943813         0.547807        -2.234752
 H        -1.866967         1.766454        -1.549603
 H        -0.449383        -0.590646        -3.133808
 H         1.427816        -0.124682        -2.124520
 H         0.844912         1.570643        -2.126703
 H         0.056820         1.688772         0.213372
 H         1.989516        -0.745019         0.607416
