19
Iteration:  1560charge 0 multiplicity 1
 C        -1.476512        -1.863296        -0.799435
 C        -1.274150        -0.395708        -0.832790
 C        -2.048739         0.447826        -1.820603
 C        -0.619952         0.258847        -2.090734
 C         0.413924         1.293695        -1.548315
 C         0.319415         1.038002        -0.032241
 O        -0.887475         0.304135         0.260200
 C         1.396097         0.134282         0.388769
 O         2.614856         0.328493         0.125942
 H        -2.582466        -2.090768        -0.499296
 H        -1.480989        -2.335308        -1.803018
 H        -0.704478        -2.507109        -0.196120
 H        -2.734567         0.009940        -2.516900
 H        -2.302515         1.391179        -1.366105
 H        -0.289358        -0.381016        -2.891622
 H         1.459525         1.007273        -1.772307
 H        -0.037645         2.274226        -1.769384
 H         0.276433         1.846359         0.613788
 H         1.239416        -0.807567         1.036713
