19
Iteration:  3803charge 0 multiplicity 1
 C        -2.259598        -1.704234        -0.759255
 C        -1.381853        -0.475459        -1.080455
 C        -1.898779         0.866496        -1.870653
 C        -0.614318         0.079112        -2.391879
 C         0.706401         0.549871        -1.905190
 C         0.441175         0.687347        -0.289635
 O        -0.540729        -0.409278         0.063123
 C         1.649359         0.488408         0.665944
 O         2.430305         1.349822         1.114408
 H        -2.190821        -1.901440         0.258365
 H        -3.315353        -1.444326        -1.134337
 H        -2.153008        -2.645924        -1.306948
 H        -2.673213         0.593188        -2.510225
 H        -1.909688         1.815841        -1.376800
 H        -1.008149        -0.500529        -3.252511
 H         1.446741        -0.141221        -2.034810
 H         1.000106         1.575920        -2.242857
 H        -0.024623         1.758752        -0.306730
 H         1.903446        -0.560861         0.854737
