19
Iteration:  1240charge 0 multiplicity 1
 C        -1.666159        -1.861964        -0.803937
 C        -1.270082        -0.448483        -0.863202
 C        -2.062769         0.494918        -1.756997
 C        -0.617027         0.220004        -2.109795
 C         0.322992         1.346380        -1.650656
 C         0.370385         0.990303        -0.166196
 O        -0.793260         0.214121         0.250010
 C         1.521297         0.112864         0.418863
 O         2.666424         0.410271         0.323190
 H        -2.691434        -2.057246        -0.375622
 H        -1.577080        -2.254030        -1.901251
 H        -0.917727        -2.631116        -0.310479
 H        -2.905512         0.108530        -2.374047
 H        -2.220272         1.540848        -1.352138
 H        -0.580373        -0.390430        -3.009148
 H         1.338499         1.265598        -1.979141
 H        -0.100910         2.320547        -1.795677
 H         0.344298         2.015966         0.267970
 H         1.167802        -0.670215         1.038409
