19
Iteration:   918charge 0 multiplicity 1
 C        -1.466408        -1.932795        -0.819907
 C        -1.337091        -0.417257        -0.898830
 C        -2.012001         0.674107        -1.783786
 C        -0.549213         0.120040        -2.056373
 C         0.434181         1.217605        -1.532379
 C         0.246096         1.026037        -0.044147
 O        -0.858895         0.234530         0.269747
 C         1.485519         0.296065         0.544807
 O         2.501093         0.269263         0.026232
 H        -2.508798        -2.275329        -0.433743
 H        -1.572714        -2.182827        -1.957759
 H        -0.553585        -2.369650        -0.432435
 H        -2.778292         0.366799        -2.493999
 H        -2.235278         1.649186        -1.341788
 H        -0.345251        -0.603800        -2.913967
 H         1.399854         1.023287        -1.862869
 H         0.209336         2.248619        -1.982274
 H         0.233298         2.019503         0.484417
 H         1.262565        -0.259511         1.476695
