19
Iteration:   219charge 0 multiplicity 1
 C        -1.596981        -1.857205        -0.809957
 C        -1.280880        -0.400296        -0.923055
 C        -2.060983         0.544939        -1.870280
 C        -0.599197         0.234301        -2.149717
 C         0.329790         1.274872        -1.537991
 C         0.301237         1.062677        -0.003368
 O        -0.719784         0.157643         0.274203
 C         1.486020         0.270557         0.528500
 O         2.590332         0.238581         0.104808
 H        -2.210660        -1.931852        -0.003485
 H        -2.065149        -2.159521        -1.718803
 H        -0.783496        -2.476221        -0.687845
 H        -2.973003         0.065954        -2.208878
 H        -2.295908         1.471230        -1.409251
 H        -0.260563        -0.355754        -3.033203
 H         1.466612         1.094869        -1.897840
 H        -0.014654         2.332683        -1.787559
 H         0.089870         1.974903         0.634807
 H         1.179687        -0.432783         1.424672
