19
Iteration:  1601charge 0 multiplicity 1
 C        -1.405973        -1.833347        -0.644678
 C        -1.353080        -0.369101        -0.956704
 C        -2.146322         0.491476        -1.945271
 C        -0.597484         0.290224        -2.063568
 C         0.387923         1.275441        -1.435869
 C         0.281476         0.886275         0.035922
 O        -1.011134         0.328203         0.203850
 C         1.577844         0.037437         0.460548
 O         2.668124         0.346904         0.023081
 H        -2.222796        -2.257012        -0.289442
 H        -1.409429        -2.183975        -1.700538
 H        -0.508395        -2.188914        -0.086080
 H        -2.654641         0.114960        -2.811881
 H        -2.458059         1.501063        -1.653914
 H        -0.307874        -0.375249        -2.911238
 H         1.415840         1.129318        -1.852619
 H         0.079884         2.347540        -1.555963
 H         0.349360         1.872083         0.720638
 H         1.268067        -0.615322         1.290867
