19
Iteration:  2698
 C        -1.687302        -1.868613        -0.736347
 C        -1.228845        -0.477445        -1.015032
 C        -2.102161         0.519928        -1.869599
 C        -0.687337         0.259450        -2.170099
 C         0.307834         1.376543        -1.599829
 C         0.407070         1.024155        -0.096664
 O        -0.769698         0.161811         0.226000
 C         1.483096         0.222195         0.530623
 O         2.731247         0.314026         0.288368
 H        -2.312997        -1.903602         0.103284
 H        -1.989882        -2.618726        -1.537105
 H        -0.817315        -2.356193        -0.330445
 H        -2.853697        -0.064810        -2.392189
 H        -2.529681         1.423465        -1.414342
 H        -0.382228        -0.280435        -3.059677
 H         1.271166         1.270624        -2.119778
 H        -0.302644         2.275392        -1.740202
 H         0.508735         1.935496         0.604286
 H         1.129332        -0.483997         1.327143
