19
Iteration:  2007charge 0 multiplicity 1
 C        -1.545828        -1.893834        -0.737870
 C        -1.342005        -0.318809        -0.991692
 C        -2.161115         0.422955        -1.969012
 C        -0.640065         0.261332        -2.128465
 C         0.334228         1.341281        -1.483122
 C         0.324632         0.975279        -0.001626
 O        -0.884086         0.259066         0.225352
 C         1.599201         0.180899         0.577334
 O         2.716726         0.268777         0.137607
 H        -1.875352        -1.995573         0.266591
 H        -2.223448        -2.447539        -1.394700
 H        -0.559403        -2.490790        -0.883493
 H        -2.657881        -0.010134        -2.847644
 H        -2.414833         1.450039        -1.658004
 H        -0.268614        -0.150258        -3.005581
 H         1.309608         1.106398        -1.937656
 H        -0.039347         2.315221        -1.602322
 H         0.265522         1.947578         0.725562
 H         1.316891        -0.315256         1.530321
