19
Iteration:  4765
 C        -1.883159        -1.825067        -0.777403
 C        -1.335001        -0.506591        -1.063165
 C        -1.921109         0.543837        -2.056624
 C        -0.482289         0.074008        -2.274179
 C         0.633084         0.882844        -1.660405
 C         0.342642         0.903060        -0.108563
 O        -0.812199         0.111242         0.039857
 C         1.383557         0.489898         0.808860
 O         2.556487         0.737027         0.672851
 H        -2.195707        -2.393918        -1.612223
 H        -1.144305        -2.410119        -0.139452
 H        -2.697575        -1.686395        -0.107543
 H        -2.700491         0.333156        -2.794292
 H        -2.080246         1.534571        -1.680757
 H        -0.218821        -0.564665        -3.046639
 H         1.620688         0.565819        -2.106155
 H         0.546076         1.852455        -2.074045
 H         0.264717         1.996198         0.250492
 H         0.851280        -0.052431         1.682999
