19
Iteration:   893charge 0 multiplicity 1
 C        -1.522407        -1.844822        -0.809174
 C        -1.293623        -0.391460        -1.007019
 C        -2.155995         0.437910        -1.892749
 C        -0.663020         0.313578        -2.170855
 C         0.394742         1.299393        -1.508875
 C         0.331334         1.024981         0.029226
 O        -0.884448         0.218269         0.304019
 C         1.536839         0.325900         0.631914
 O         2.661445         0.174462         0.061052
 H        -2.415156        -1.944725        -0.173253
 H        -1.664612        -2.452458        -1.777179
 H        -0.557121        -2.229465        -0.254601
 H        -2.767646        -0.155065        -2.621187
 H        -2.606966         1.450980        -1.633642
 H        -0.317327        -0.254759        -3.012403
 H         1.287026         0.724054        -1.935396
 H         0.334272         2.305695        -1.802422
 H         0.317297         1.896977         0.595865
 H         1.425686        -0.126914         1.691311
