19
Iteration:  2924
 C        -1.405066        -1.870755        -0.609894
 C        -1.341654        -0.460680        -0.979084
 C        -1.993717         0.479388        -2.026019
 C        -0.562166         0.320670        -2.148142
 C         0.349444         1.435602        -1.518187
 C         0.279520         0.967540         0.056519
 O        -0.961787         0.325854         0.237935
 C         1.490545         0.171794         0.599659
 O         2.581225         0.137427        -0.007552
 H        -1.656621        -1.994746         0.541861
 H        -2.175530        -2.556844        -1.203262
 H        -0.421881        -2.349772        -0.824823
 H        -2.676873        -0.023563        -2.760993
 H        -2.416210         1.378602        -1.556419
 H        -0.191087        -0.164030        -3.048316
 H         1.336904         1.470952        -1.895018
 H         0.006244         2.437940        -1.590133
 H         0.200030         1.805574         0.824933
 H         1.278894        -0.456824         1.507198
