19
Iteration:  2771
 C        -1.598525        -1.858543        -0.876983
 C        -1.325648        -0.352655        -0.895144
 C        -1.978125         0.540961        -1.898319
 C        -0.429899         0.098098        -2.032860
 C         0.360495         1.159638        -1.480076
 C         0.303999         0.994549         0.059624
 O        -0.936124         0.269793         0.363200
 C         1.448075         0.238166         0.458464
 O         2.613460         0.395923        -0.020768
 H        -2.202206        -2.175117         0.061277
 H        -2.050016        -2.195335        -1.824692
 H        -0.678936        -2.478015        -0.742075
 H        -2.727403         0.160896        -2.625786
 H        -2.223425         1.598997        -1.581116
 H        -0.009906        -0.521401        -2.826268
 H         1.338902         0.924704        -1.892896
 H        -0.083979         2.157826        -1.722792
 H         0.123237         1.970779         0.529267
 H         1.313924        -0.447984         1.319875
