19
Iteration:  1694charge 0 multiplicity 1
 C        -1.380946        -1.906757        -0.793712
 C        -1.315717        -0.369204        -0.940409
 C        -2.110360         0.451636        -1.911085
 C        -0.540970         0.321432        -2.101434
 C         0.402018         1.284427        -1.453469
 C         0.319284         1.048177         0.061692
 O        -0.969565         0.267199         0.256823
 C         1.502809         0.238649         0.588297
 O         2.519195         0.169527        -0.090458
 H        -1.987616        -2.008648         0.275182
 H        -1.957620        -2.493465        -1.526981
 H        -0.369834        -2.154841        -0.492298
 H        -2.772822         0.047145        -2.683714
 H        -2.443307         1.457866        -1.550952
 H        -0.120751        -0.474280        -2.751949
 H         1.438786         1.131914        -1.832699
 H         0.178171         2.361359        -1.685077
 H         0.140359         1.958449         0.710483
 H         1.581004        -0.152243         1.655184
