19
Iteration:  1414charge 0 multiplicity 1
 C        -1.645485        -1.871194        -0.797119
 C        -1.341316        -0.376505        -0.995388
 C        -2.185549         0.495632        -1.933864
 C        -0.643303         0.278820        -2.144368
 C         0.366365         1.214493        -1.532564
 C         0.339882         0.945731        -0.020024
 O        -0.847101         0.140697         0.247348
 C         1.671935         0.372709         0.597564
 O         2.721631         0.323722         0.170352
 H        -2.602355        -2.057212        -0.372232
 H        -1.674601        -2.396343        -1.762935
 H        -0.955304        -2.331490        -0.076652
 H        -3.048028         0.038121        -2.507417
 H        -2.518387         1.428356        -1.408268
 H        -0.180816        -0.361235        -2.896541
 H         1.367661         1.110240        -1.942333
 H         0.151010         2.280730        -1.682260
 H         0.218823         1.814460         0.522683
 H         1.507871        -0.188579         1.538164
