19
Iteration:  3077
 C        -1.356845        -1.896488        -0.821754
 C        -1.203079        -0.407824        -0.858810
 C        -2.066091         0.311387        -1.858941
 C        -0.575740         0.287382        -1.980341
 C         0.226667         1.503249        -1.555250
 C         0.378176         1.106776        -0.078398
 O        -0.868932         0.443759         0.278023
 C         1.388184         0.154099         0.494240
 O         2.568031        -0.002377         0.067580
 H        -2.452350        -1.956433        -1.131737
 H        -0.915210        -2.346493        -1.691443
 H        -1.140095        -2.416668         0.111006
 H        -2.672218        -0.222663        -2.604995
 H        -2.492293         1.287006        -1.523722
 H        -0.377210        -0.283528        -2.954137
 H         1.198602         1.580223        -2.040552
 H        -0.283865         2.462714        -1.581299
 H         0.484784         2.012344         0.599191
 H         0.974688        -0.400607         1.390188
