19
Iteration:  2371
 C        -1.660578        -1.907809        -0.868737
 C        -1.312071        -0.404503        -0.927554
 C        -2.034629         0.511237        -1.826436
 C        -0.530553         0.215721        -2.105049
 C         0.480662         1.183905        -1.568531
 C         0.303720         0.972056         0.065211
 O        -0.850207         0.213356         0.345523
 C         1.454461         0.217280         0.544623
 O         2.574226         0.449955         0.021669
 H        -1.886580        -2.030788         0.070319
 H        -2.534888        -2.081730        -1.563288
 H        -0.746526        -2.493383        -1.178070
 H        -2.682160         0.034380        -2.616448
 H        -2.411306         1.524677        -1.537929
 H        -0.275604        -0.364353        -2.964817
 H         1.557643         0.828993        -1.848065
 H         0.449417         2.251264        -1.925278
 H         0.108002         2.024994         0.589768
 H         1.426815        -0.275318         1.527943
