19
Iteration:  4187
 C        -1.911165        -1.810111        -0.948018
 C        -1.410615        -0.403407        -1.064292
 C        -2.020739         0.656079        -1.975944
 C        -0.633376         0.029761        -2.273935
 C         0.626274         0.680284        -1.721771
 C         0.321491         0.855164        -0.175924
 O        -0.731689         0.053055         0.195083
 C         1.533782         0.536293         0.923049
 O         2.688881         0.852096         0.638798
 H        -2.976143        -1.955993        -1.453494
 H        -1.239045        -2.495735        -1.535357
 H        -2.170395        -2.168905         0.037333
 H        -2.922221         0.407226        -2.593918
 H        -2.311432         1.656009        -1.589171
 H        -0.601221        -0.626525        -3.138395
 H         1.518385         0.046745        -1.878850
 H         0.967764         1.638730        -2.085417
 H         0.151346         1.938043         0.022749
 H         1.214474         0.045741         1.918916
