19
Iteration:  4986
 C        -1.569519        -1.818829        -0.646150
 C        -1.304595        -0.479136        -1.169081
 C        -1.870314         0.400476        -2.284121
 C        -0.315907         0.054039        -2.144559
 C         0.662265         1.018937        -1.560218
 C         0.210522         1.127587        -0.075101
 O        -1.055314         0.320637         0.083040
 C         1.251876         0.458809         0.832245
 O         2.468696         0.401196         0.520382
 H        -0.678625        -2.575723        -0.615651
 H        -1.992296        -1.801415         0.353840
 H        -2.415390        -2.351539        -1.108633
 H        -2.324266        -0.120268        -3.141668
 H        -2.319510         1.359876        -2.043415
 H         0.086731        -0.625370        -2.961146
 H         1.653475         0.512989        -1.518575
 H         0.653477         1.999316        -2.039203
 H         0.035268         2.132183         0.274010
 H         0.907510         0.269590         1.900702
