19
Iteration:  1058
 C        -1.492221        -1.893229        -0.794741
 C        -1.395264        -0.439217        -0.992484
 C        -2.141762         0.536718        -1.811100
 C        -0.668673         0.257293        -2.067409
 C         0.545371         1.122048        -1.551513
 C         0.334074         0.996539         0.032554
 O        -0.955401         0.321214         0.278554
 C         1.503825         0.154474         0.432692
 O         2.677109         0.433058         0.134465
 H        -2.303208        -2.131418        -0.161705
 H        -1.606399        -2.445297        -1.764129
 H        -0.564044        -2.231856        -0.388737
 H        -2.833446         0.295288        -2.619531
 H        -2.409253         1.456158        -1.302587
 H        -0.376032        -0.299614        -2.980241
 H         1.550099         0.701649        -1.909754
 H         0.503870         2.150175        -1.748719
 H         0.088364         1.972826         0.568502
 H         1.178181        -0.858366         0.914460
