19
Iteration:  1355charge 0 multiplicity 1
 C        -1.666097        -1.856446        -0.807396
 C        -1.282397        -0.395198        -0.891454
 C        -2.014673         0.559313        -1.823712
 C        -0.560122         0.167272        -2.117257
 C         0.378934         1.246107        -1.653630
 C         0.252151         1.015351         0.004641
 O        -0.797573         0.142927         0.289150
 C         1.514754         0.228085         0.491395
 O         2.624488         0.398786         0.152630
 H        -2.424133        -2.195797         0.013775
 H        -2.116714        -2.041889        -1.829720
 H        -0.767716        -2.479356        -0.803653
 H        -2.678091         0.008438        -2.481930
 H        -2.306385         1.517873        -1.330492
 H        -0.253426        -0.434433        -2.997106
 H         1.548494         1.096642        -1.810276
 H        -0.012096         2.319056        -1.895929
 H         0.209584         1.907900         0.506126
 H         1.106963        -0.453887         1.321351
