19
Iteration:  4597
 C        -2.230832        -1.824354        -0.987676
 C        -1.427943        -0.492175        -1.096018
 C        -1.901026         0.818679        -1.775420
 C        -0.667633         0.117999        -2.303729
 C         0.707695         0.547793        -1.695701
 C         0.461357         0.704544        -0.184363
 O        -0.667894        -0.294020         0.111024
 C         1.633614         0.566005         0.753405
 O         2.596826         1.269858         0.766896
 H        -2.715044        -1.750367        -0.103562
 H        -2.910670        -1.817062        -1.828164
 H        -1.528761        -2.675233        -1.124163
 H        -2.707135         0.575834        -2.485163
 H        -1.967624         1.834876        -1.392223
 H        -0.729103        -0.361788        -3.262504
 H         1.461563        -0.211295        -1.816832
 H         1.106668         1.511481        -2.138079
 H        -0.086769         1.628367         0.141045
 H         1.327854        -0.113489         1.642551
