19
Iteration:  1902
 C        -1.569057        -1.896454        -0.729784
 C        -1.291581        -0.421407        -1.008323
 C        -2.122326         0.372816        -2.009301
 C        -0.588677         0.323185        -2.124208
 C         0.215639         1.397680        -1.444169
 C         0.372704         1.017776         0.012019
 O        -0.885139         0.284852         0.276432
 C         1.553949         0.190721         0.571601
 O         2.759785         0.197975         0.078500
 H        -2.580961        -1.971645        -0.183496
 H        -1.659849        -2.615697        -1.545041
 H        -0.829218        -2.139339         0.124667
 H        -2.680062        -0.111159        -2.818199
 H        -2.409432         1.407303        -1.765110
 H        -0.311119        -0.230157        -2.996098
 H         1.226141         1.583901        -1.929264
 H        -0.255260         2.483091        -1.640088
 H         0.458628         1.893123         0.572014
 H         1.208386        -0.356466         1.473850
