19
Iteration:  4709
 C        -1.884014        -1.809844        -0.988592
 C        -1.461112        -0.378707        -1.038836
 C        -1.945535         0.636892        -1.997182
 C        -0.540658        -0.065218        -2.175994
 C         0.706368         0.774950        -1.676519
 C         0.284267         0.822604        -0.138644
 O        -0.836818         0.082932         0.180962
 C         1.509229         0.473164         0.804617
 O         2.608600         0.908877         0.629639
 H        -1.203894        -2.568644        -1.301568
 H        -2.003519        -2.303133         0.059791
 H        -2.761209        -2.006278        -1.512099
 H        -2.766393         0.279867        -2.648827
 H        -1.981717         1.738106        -1.764549
 H        -0.275340        -0.682558        -3.088935
 H         1.596805         0.121359        -1.765068
 H         0.747904         1.732182        -2.160628
 H         0.059792         1.953222         0.218550
 H         1.221118        -0.079226         1.731193
