19
Iteration:  4808charge 0 multiplicity 1
 C        -1.857841        -1.858232        -0.882774
 C        -1.331049        -0.434576        -1.082440
 C        -1.942347         0.476419        -2.138867
 C        -0.447457        -0.034758        -2.140457
 C         0.599966         0.913961        -1.587624
 C         0.264696         1.052010        -0.098239
 O        -0.862320         0.230100         0.146798
 C         1.429155         0.478472         0.741853
 O         2.602436         0.674426         0.655943
 H        -2.805297        -2.166544        -1.204055
 H        -1.210746        -2.622523        -1.496491
 H        -1.850890        -2.085307         0.144967
 H        -2.540206        -0.057431        -2.886826
 H        -2.144506         1.526015        -1.994472
 H        -0.209595        -0.686195        -2.909398
 H         1.597895         0.361196        -1.623933
 H         0.758784         1.851532        -2.103221
 H         0.056487         2.034308         0.217297
 H         0.929235        -0.246445         1.479427
