19
Iteration:  3781charge 0 multiplicity 1
 C        -2.314117        -1.607356        -0.874292
 C        -1.400998        -0.480445        -1.103667
 C        -1.838261         0.740549        -1.789823
 C        -0.622684        -0.063122        -2.313001
 C         0.604765         0.608539        -1.759635
 C         0.455096         0.737518        -0.249422
 O        -0.419519        -0.314297        -0.005878
 C         1.610328         0.446757         0.619755
 O         2.396016         1.321619         1.018557
 H        -2.346202        -1.743753         0.162906
 H        -3.233030        -1.483910        -1.521256
 H        -2.007865        -2.538729        -1.355749
 H        -2.825379         0.613510        -2.103775
 H        -1.457340         1.651167        -1.371916
 H        -0.640817        -0.792543        -3.184226
 H         1.457692         0.080042        -1.904316
 H         0.694579         1.649279        -2.147331
 H         0.152555         1.865557        -0.052738
 H         1.668190        -0.511153         1.124097
