19
Iteration:  1938
 C        -1.502084        -1.863633        -0.803678
 C        -1.320604        -0.417642        -0.971278
 C        -2.088621         0.424170        -1.899730
 C        -0.616130         0.239387        -2.089741
 C         0.331530         1.305004        -1.499202
 C         0.327347         1.017181         0.006865
 O        -0.911088         0.327890         0.302787
 C         1.489739         0.168379         0.509586
 O         2.688157         0.272777         0.079341
 H        -2.551131        -1.945614        -0.316163
 H        -1.349407        -2.462621        -1.725455
 H        -0.798234        -2.280374        -0.183151
 H        -2.777100        -0.012221        -2.621434
 H        -2.355187         1.466162        -1.693424
 H        -0.134254        -0.309030        -2.963020
 H         1.354978         1.172511        -1.808578
 H        -0.062324         2.348296        -1.638196
 H         0.387541         1.970606         0.602636
 H         1.399163        -0.546977         1.387198
