19
Iteration:  1862charge 0 multiplicity 1
 C        -1.489880        -1.882785        -0.783620
 C        -1.211632        -0.379605        -0.918325
 C        -2.030352         0.462466        -1.879584
 C        -0.501613         0.162485        -2.097095
 C         0.387128         1.360402        -1.508564
 C         0.290573         1.076754         0.012435
 O        -0.899310         0.303435         0.346089
 C         1.341130         0.147801         0.441725
 O         2.533574         0.267490        -0.002918
 H        -2.191553        -2.135753         0.080008
 H        -2.011329        -2.342739        -1.650766
 H        -0.537450        -2.371044        -0.629430
 H        -2.535168        -0.035986        -2.662790
 H        -2.346132         1.378565        -1.364956
 H        -0.033197        -0.439463        -2.898305
 H         1.424608         1.273621        -1.676963
 H         0.056170         2.326254        -1.734378
 H         0.270540         1.984898         0.798301
 H         1.328019        -0.655306         1.229464
