19
Iteration:   813
 C        -1.380808        -1.881915        -0.802160
 C        -1.304328        -0.332860        -0.915625
 C        -2.155107         0.487150        -1.913072
 C        -0.560965         0.224384        -2.026048
 C         0.461520         1.276278        -1.516084
 C         0.250206         1.117676         0.024989
 O        -0.895473         0.329596         0.330601
 C         1.378681         0.127789         0.446152
 O         2.586525         0.199898         0.035120
 H        -1.999186        -2.216890         0.070023
 H        -1.797391        -2.300366        -1.693008
 H        -0.337647        -2.385304        -0.662854
 H        -2.883061        -0.036401        -2.484797
 H        -2.491890         1.424478        -1.566737
 H        -0.173200        -0.452655        -2.833586
 H         1.520215         0.999576        -1.818327
 H         0.329637         2.378500        -1.896088
 H         0.311132         2.058220         0.502771
 H         1.190262        -0.674318         1.143310
