19
Iteration:   568charge 0 multiplicity 1
 C        -1.435954        -1.914955        -0.719741
 C        -1.440548        -0.405778        -0.975663
 C        -2.165654         0.612463        -1.928853
 C        -0.588125         0.303943        -2.111755
 C         0.355303         1.314143        -1.558871
 C         0.301526         0.954990         0.015420
 O        -0.838691         0.221571         0.234930
 C         1.564889         0.297842         0.642015
 O         2.638048         0.143108         0.019423
 H        -2.303451        -2.070694         0.046658
 H        -1.709450        -2.780326        -1.471943
 H        -0.480211        -2.091577        -0.190555
 H        -2.779669         0.270801        -2.729173
 H        -2.314156         1.592879        -1.473820
 H        -0.297538        -0.390794        -2.917286
 H         1.345312         1.123547        -1.825579
 H        -0.018607         2.309385        -1.882325
 H         0.184107         1.889107         0.588432
 H         1.488346        -0.158973         1.616697
