19
Iteration:  2345charge 0 multiplicity 1
 C        -1.626641        -1.914329        -0.897915
 C        -1.388058        -0.408889        -0.956743
 C        -2.040869         0.526594        -1.921265
 C        -0.580658         0.171443        -2.028560
 C         0.389963         1.160367        -1.458000
 C         0.323159         0.943297         0.099587
 O        -0.964673         0.248709         0.287714
 C         1.624166         0.313875         0.526951
 O         2.676583         0.403200         0.020558
 H        -2.062496        -1.926989         0.210849
 H        -2.243017        -2.260099        -1.699818
 H        -0.573393        -2.350201        -0.983617
 H        -2.807514         0.397635        -2.638084
 H        -2.165353         1.524892        -1.507112
 H        -0.181425        -0.506524        -2.824098
 H         1.356832         0.932073        -1.855586
 H         0.336580         2.194754        -1.667725
 H         0.065642         1.914716         0.434880
 H         1.470584        -0.373797         1.417624
