19
Iteration:  3143
 C        -1.372449        -1.897412        -0.723820
 C        -1.339322        -0.412260        -0.923193
 C        -2.051009         0.425594        -1.974074
 C        -0.560745         0.304772        -2.101715
 C         0.420628         1.341182        -1.401020
 C         0.286939         0.966474         0.072753
 O        -0.983450         0.418904         0.236945
 C         1.496236         0.075362         0.511644
 O         2.510687         0.250564        -0.060928
 H        -1.968208        -2.012424         0.201579
 H        -1.756751        -2.564578        -1.393424
 H        -0.384464        -2.276685        -0.455319
 H        -2.732777         0.051688        -2.732035
 H        -2.408898         1.356259        -1.502488
 H        -0.149015        -0.087868        -3.084907
 H         1.405439         0.953211        -1.676639
 H         0.279140         2.390242        -1.682234
 H         0.335659         1.911171         0.758241
 H         1.372131        -0.588594         1.403727
