19
Iteration:   979charge 0 multiplicity 1
 C        -1.668925        -1.821803        -0.728234
 C        -1.369789        -0.414954        -1.065287
 C        -2.135975         0.438311        -1.996341
 C        -0.611661         0.309689        -2.168531
 C         0.333488         1.319574        -1.499853
 C         0.332895         0.956969         0.009641
 O        -0.861895         0.136216         0.271183
 C         1.667209         0.333747         0.638964
 O         2.761308         0.247455         0.126106
 H        -2.270664        -1.824193         0.113463
 H        -2.185254        -2.231324        -1.577805
 H        -0.807785        -2.494423        -0.499075
 H        -2.741204        -0.243266        -2.640806
 H        -2.653707         1.353965        -1.602815
 H        -0.200128        -0.322787        -2.940561
 H         1.408392         1.286370        -1.972757
 H        -0.035520         2.380369        -1.464130
 H         0.085883         1.957824         0.494461
 H         1.453056         0.019300         1.634113
