19
Iteration:  1213
 C        -1.621669        -1.878065        -0.788149
 C        -1.354102        -0.390227        -0.975451
 C        -2.184477         0.506366        -1.935156
 C        -0.677229         0.233985        -2.105958
 C         0.400943         1.202604        -1.468412
 C         0.365169         0.894193         0.017227
 O        -0.917591         0.327401         0.248596
 C         1.618469         0.038607         0.364201
 O         2.790835         0.533331         0.262708
 H        -2.478541        -2.033556        -0.133157
 H        -1.788158        -2.364449        -1.710594
 H        -0.850112        -2.387807        -0.324086
 H        -2.952562        -0.034713        -2.486348
 H        -2.457787         1.423384        -1.471622
 H        -0.556466        -0.370617        -3.007939
 H         1.481818         1.000698        -1.789170
 H         0.166315         2.269860        -1.730898
 H         0.397671         1.938172         0.534011
 H         1.507929        -1.006002         0.831876
