19
Iteration:  1887charge 0 multiplicity 1
 C        -1.560410        -1.876496        -0.669253
 C        -1.227404        -0.419817        -0.950349
 C        -2.056040         0.454360        -1.983110
 C        -0.595217         0.236680        -2.119830
 C         0.279121         1.425598        -1.495759
 C         0.283615         1.050186         0.031405
 O        -0.871901         0.267541         0.243122
 C         1.533087         0.204738         0.465908
 O         2.658051         0.187798         0.092239
 H        -2.502168        -2.003575        -0.202518
 H        -1.719537        -2.306452        -1.704670
 H        -0.708478        -2.546002        -0.159698
 H        -2.684410        -0.183575        -2.669517
 H        -2.506330         1.311454        -1.467296
 H         0.031153        -0.237633        -2.926602
 H         1.333916         1.489696        -1.887232
 H        -0.247346         2.360185        -1.541609
 H         0.228995         1.907590         0.758891
 H         1.320198        -0.495999         1.270946
