19
Iteration:  2653charge 0 multiplicity 1
 C        -1.482429        -1.951907        -0.858323
 C        -1.370454        -0.366142        -0.922591
 C        -2.268268         0.559994        -1.806268
 C        -0.672954         0.260468        -2.121922
 C         0.401531         1.129393        -1.632082
 C         0.392464         0.953578        -0.087824
 O        -0.884306         0.334404         0.296237
 C         1.581340         0.156380         0.465477
 O         2.746149         0.403216         0.305967
 H        -2.491678        -2.154511        -0.543208
 H        -1.412201        -2.380096        -1.876431
 H        -0.911725        -2.540826        -0.236093
 H        -2.981063         0.144201        -2.573477
 H        -2.486224         1.563803        -1.410846
 H        -0.673854        -0.196727        -3.104272
 H         1.398054         0.793507        -1.992143
 H         0.163402         2.180999        -1.718908
 H         0.414470         1.986639         0.386687
 H         1.225233        -0.608185         1.193887
