19
Iteration:  3579
 C        -1.926317        -1.861118        -1.034174
 C        -1.326472        -0.480794        -0.977245
 C        -1.891326         0.713704        -1.782868
 C        -0.539698         0.105144        -2.210466
 C         0.623725         0.843449        -1.564039
 C         0.263795         0.931410        -0.123875
 O        -0.713997        -0.078684         0.197728
 C         1.425714         0.612786         0.773406
 O         2.578924         0.696976         0.372430
 H        -1.352615        -2.614103        -1.769534
 H        -1.842188        -2.440049        -0.116784
 H        -3.059922        -1.882917        -1.342979
 H        -2.786747         0.509413        -2.371232
 H        -1.969125         1.704174        -1.321982
 H        -0.577824        -0.610937        -3.058313
 H         1.579660         0.472503        -1.795076
 H         0.619955         1.820662        -2.011534
 H        -0.213487         1.893299         0.081857
 H         1.223498         0.367408         1.811882
