19
Iteration:  1411charge 0 multiplicity 1
 C        -1.642525        -1.872119        -0.791078
 C        -1.369557        -0.388961        -1.008975
 C        -2.182934         0.483858        -1.920742
 C        -0.643677         0.286093        -2.136478
 C         0.356611         1.250616        -1.549408
 C         0.338012         0.942725        -0.016670
 O        -0.853488         0.125341         0.238753
 C         1.659318         0.363380         0.612827
 O         2.753504         0.320589         0.169798
 H        -2.737975        -1.967357        -0.332880
 H        -1.645808        -2.482204        -1.652521
 H        -0.980928        -2.397713        -0.146034
 H        -2.992274        -0.037160        -2.502968
 H        -2.494828         1.494260        -1.497701
 H        -0.153957        -0.281782        -2.905192
 H         1.433995         1.059779        -2.027617
 H         0.197570         2.399868        -1.637231
 H         0.263097         1.920237         0.464851
 H         1.535826        -0.147757         1.613147
