19
Iteration:  4372
 C        -1.883210        -1.893945        -0.719256
 C        -1.395871        -0.390363        -1.020009
 C        -1.960924         0.747750        -1.867437
 C        -0.704068         0.029114        -2.261033
 C         0.587954         0.734948        -1.879190
 C         0.441501         0.928067        -0.273667
 O        -0.695564         0.084392         0.102678
 C         1.634335         0.348729         0.321790
 O         2.391614         0.876294         1.137620
 H        -2.257967        -2.491755        -1.615842
 H        -0.881433        -2.232470        -0.377765
 H        -2.627310        -1.842428         0.005071
 H        -2.778499         0.534399        -2.560252
 H        -1.974780         1.753549        -1.433978
 H        -0.749502        -0.709677        -2.999525
 H         1.550647         0.138420        -2.084870
 H         0.732131         1.657539        -2.396637
 H         0.448160         2.067090         0.034952
 H         1.764439        -0.797002         0.186874
