19
Iteration:  4396
 C        -1.859278        -1.833071        -0.815140
 C        -1.400464        -0.383627        -1.017921
 C        -2.091730         0.605580        -1.883760
 C        -0.749669         0.107993        -2.315533
 C         0.580060         0.632886        -1.820036
 C         0.430580         0.878421        -0.339100
 O        -0.711884         0.179636         0.111448
 C         1.749924         0.352577         0.402208
 O         2.492329         0.926972         1.220684
 H        -2.778920        -1.856702        -1.558997
 H        -1.063264        -2.472788        -1.153879
 H        -2.318563        -1.963580         0.153273
 H        -2.960269         0.412898        -2.511894
 H        -2.156216         1.556700        -1.357306
 H        -0.721795        -0.699055        -3.068431
 H         1.382985        -0.152666        -1.958928
 H         0.982371         1.494225        -2.295785
 H         0.324673         1.972766        -0.154133
 H         1.913732        -0.819989         0.284565
