19
Iteration:  1785charge 0 multiplicity 1
 C        -1.438760        -1.879037        -0.716278
 C        -1.262800        -0.378450        -0.975670
 C        -2.134584         0.381662        -1.915983
 C        -0.601006         0.311933        -2.109982
 C         0.285232         1.470822        -1.546225
 C         0.319129         1.103875        -0.020995
 O        -0.812439         0.274388         0.240195
 C         1.440198         0.208536         0.545258
 O         2.642850         0.049518         0.102377
 H        -2.337645        -2.123799         0.052169
 H        -1.614203        -2.462166        -1.683886
 H        -0.541916        -2.343385        -0.206149
 H        -2.727351        -0.231531        -2.589627
 H        -2.567799         1.235895        -1.427709
 H        -0.264982        -0.041757        -3.067037
 H         1.233732         1.603294        -1.952694
 H        -0.191616         2.426252        -1.702169
 H         0.196472         1.982110         0.697936
 H         1.246719        -0.379917         1.460467
