19
Iteration:  3248
 C        -1.553849        -1.874590        -0.757546
 C        -1.395219        -0.406656        -0.991259
 C        -2.086465         0.482072        -1.953959
 C        -0.498835         0.242263        -2.099338
 C         0.448579         1.218536        -1.497110
 C         0.325965         0.958507         0.056825
 O        -0.937651         0.256597         0.206584
 C         1.478431         0.245996         0.600370
 O         2.637369         0.361301         0.123017
 H        -0.600885        -2.416341        -1.060226
 H        -1.743134        -2.142126         0.396031
 H        -2.295910        -2.270108        -1.479204
 H        -2.609342        -0.009614        -2.802093
 H        -2.590343         1.416430        -1.589010
 H        -0.221273        -0.206173        -3.090027
 H         1.482949         1.196324        -1.846859
 H         0.167186         2.261773        -1.707018
 H         0.343506         1.933564         0.432658
 H         1.248138        -0.556480         1.366858
