19
Iteration:  2603
 C        -1.597959        -1.838729        -0.731308
 C        -1.385323        -0.393701        -0.964729
 C        -2.061683         0.586451        -1.910325
 C        -0.669972         0.306385        -2.139767
 C         0.409235         1.135773        -1.539757
 C         0.339308         0.900150         0.003242
 O        -0.854585         0.163208         0.258241
 C         1.512824         0.139841         0.471133
 O         2.716488         0.518786         0.179615
 H        -2.211883        -2.082514         0.124825
 H        -2.029722        -2.415294        -1.619171
 H        -0.575963        -2.422982        -0.607726
 H        -2.821580         0.269195        -2.609336
 H        -2.365814         1.499278        -1.434163
 H        -0.488741        -0.351836        -2.981926
 H         1.382583         0.804495        -1.894076
 H         0.317841         2.250671        -1.596683
 H         0.174354         1.811819         0.556878
 H         1.277100        -0.815999         0.983818
