19
Iteration:  1562charge 0 multiplicity 1
 C        -1.461377        -1.871500        -0.781025
 C        -1.273481        -0.409855        -0.844897
 C        -2.064496         0.458131        -1.819355
 C        -0.620827         0.256758        -2.104478
 C         0.429102         1.293956        -1.553845
 C         0.310467         1.044242        -0.017692
 O        -0.897567         0.308677         0.270913
 C         1.418365         0.124398         0.383431
 O         2.590581         0.330670         0.122485
 H        -2.639931        -2.092476        -0.513625
 H        -1.416337        -2.271854        -1.801903
 H        -0.712500        -2.504618        -0.234148
 H        -2.754031         0.034166        -2.564754
 H        -2.276657         1.432976        -1.409954
 H        -0.271257        -0.374440        -2.871700
 H         1.460744         0.964193        -1.732626
 H        -0.002063         2.253833        -1.756008
 H         0.338316         1.879925         0.622930
 H         1.332898        -0.812416         1.012321
