19
Iteration:  2057
 C        -1.563796        -1.892394        -0.821587
 C        -1.260163        -0.379314        -0.964087
 C        -2.054021         0.476360        -1.844204
 C        -0.620903         0.195109        -2.110383
 C         0.331537         1.350537        -1.521258
 C         0.339032         1.062936        -0.038803
 O        -0.799193         0.235033         0.254301
 C         1.503434         0.231341         0.532566
 O         2.635755         0.255727         0.144102
 H        -2.495256        -1.898306        -0.127058
 H        -1.847660        -2.368902        -1.793465
 H        -0.839899        -2.511467        -0.456396
 H        -2.845998        -0.052536        -2.379273
 H        -2.362497         1.354193        -1.303808
 H        -0.174500        -0.436539        -2.958409
 H         1.202625         1.261617        -2.140440
 H        -0.215362         2.310618        -1.682025
 H         0.084088         1.914327         0.551609
 H         1.021378        -0.474022         1.316567
