19
Iteration:  4795
 C        -1.829235        -1.834385        -0.774573
 C        -1.410462        -0.385258        -1.052090
 C        -1.867035         0.493097        -2.166793
 C        -0.464794         0.048202        -2.292196
 C         0.602691         0.877760        -1.639508
 C         0.246330         0.972506        -0.094194
 O        -0.885984         0.101172         0.125465
 C         1.393826         0.513331         0.777282
 O         2.630257         0.675876         0.678992
 H        -2.717879        -1.994289        -1.293264
 H        -0.837775        -2.468051        -0.969596
 H        -1.886144        -1.925445         0.326443
 H        -2.686459         0.171819        -2.872301
 H        -1.980734         1.578898        -1.888584
 H        -0.086666        -0.776033        -2.969827
 H         1.630290         0.548153        -1.857233
 H         0.517217         1.946128        -2.025434
 H         0.021660         1.947005         0.213667
 H         1.063610        -0.191840         1.569983
