19
Iteration:  4937charge 0 multiplicity 1
 C        -1.710408        -1.899297        -0.854044
 C        -1.290649        -0.507307        -0.994421
 C        -1.857973         0.365268        -2.188344
 C        -0.376767        -0.019846        -2.110214
 C         0.595657         1.034252        -1.641464
 C         0.262513         1.073326        -0.160237
 O        -0.989106         0.423143         0.102335
 C         1.360111         0.545193         0.784670
 O         2.546123         0.437491         0.667773
 H        -1.396437        -2.397713        -0.002116
 H        -2.842666        -2.145563        -0.808018
 H        -1.524158        -2.515438        -1.739818
 H        -2.559124         0.019748        -2.971018
 H        -2.032939         1.414818        -1.900438
 H        -0.048541        -0.788741        -2.720057
 H         1.633503         0.780762        -1.708308
 H         0.320408         2.034582        -2.019404
 H         0.002164         2.181521         0.165100
 H         0.749448         0.041687         1.553510
