19
Iteration:  1307charge 0 multiplicity 1
 C        -1.556504        -1.833629        -0.818655
 C        -1.365988        -0.382224        -0.943444
 C        -2.123770         0.502833        -1.889217
 C        -0.694509         0.282306        -2.134811
 C         0.477546         1.110286        -1.488497
 C         0.339783         0.830666        -0.043461
 O        -0.999764         0.285178         0.235380
 C         1.613550         0.193216         0.657835
 O         2.718913         0.479876         0.072211
 H        -2.061464        -1.992571         0.129289
 H        -2.235974        -2.316970        -1.680092
 H        -0.567747        -2.482843        -0.753036
 H        -2.776836         0.071432        -2.628169
 H        -2.296783         1.438706        -1.431645
 H        -0.393667        -0.193782        -3.044936
 H         1.428154         0.824198        -1.873442
 H         0.268666         2.172903        -1.608595
 H         0.311123         1.843780         0.551606
 H         1.536589        -0.555006         1.526759
