19
Iteration:  3658
 C        -2.066784        -1.851644        -0.984768
 C        -1.403694        -0.484610        -1.044570
 C        -1.946935         0.741162        -1.789312
 C        -0.639060         0.059824        -2.299018
 C         0.632850         0.742273        -1.731456
 C         0.355082         0.865453        -0.152611
 O        -0.631684        -0.176908         0.122885
 C         1.527748         0.614867         0.768654
 O         2.671676         0.941815         0.726230
 H        -3.032531        -1.826730        -1.581158
 H        -1.487674        -2.703906        -1.504677
 H        -2.320550        -2.244408         0.092547
 H        -2.869924         0.629999        -2.410784
 H        -1.976257         1.816543        -1.417980
 H        -0.629931        -0.332305        -3.310168
 H         1.416445         0.105304        -2.049813
 H         0.783264         1.757720        -2.059201
 H        -0.194525         1.898014         0.041859
 H         1.182316        -0.095851         1.617199
