19
Iteration:  2179
 C        -1.518356        -1.912145        -0.722588
 C        -1.210693        -0.410041        -0.941929
 C        -2.066401         0.447083        -1.850397
 C        -0.545007         0.252601        -2.109100
 C         0.297282         1.407513        -1.613449
 C         0.308707         0.974419        -0.020747
 O        -0.872650         0.242876         0.274717
 C         1.455681         0.109684         0.370124
 O         2.639465         0.294863         0.211853
 H        -2.050520        -1.822960         0.331313
 H        -2.332686        -2.074114        -1.477740
 H        -0.812919        -2.667504        -0.808127
 H        -2.842352         0.119272        -2.573733
 H        -2.257400         1.465657        -1.455747
 H        -0.175759        -0.050249        -3.028209
 H         1.310414         1.570563        -1.815368
 H        -0.028885         2.483694        -1.676693
 H         0.383823         2.070983         0.571419
 H         0.891062        -0.651260         0.994555
