19
Iteration:  4551charge 0 multiplicity 1
 C        -2.219033        -1.774606        -1.043843
 C        -1.428285        -0.440796        -1.032898
 C        -1.822129         0.860177        -1.689554
 C        -0.606006         0.066603        -2.206054
 C         0.698023         0.545433        -1.705805
 C         0.399387         0.675808        -0.223718
 O        -0.621212        -0.294191         0.131344
 C         1.590267         0.466138         0.620850
 O         2.438281         1.315535         0.757275
 H        -3.241014        -1.506403        -0.837669
 H        -2.056480        -2.383087        -1.879609
 H        -1.649033        -2.293326        -0.219558
 H        -2.735603         0.835423        -2.243812
 H        -1.546255         1.760328        -1.167655
 H        -0.525295        -0.392257        -3.177109
 H         1.400608        -0.278070        -1.915094
 H         1.135975         1.486365        -2.125341
 H        -0.075773         1.746952        -0.131029
 H         1.878651        -0.603459         1.058946
