19
Iteration:   906charge 0 multiplicity 1
 C        -1.494390        -1.885257        -0.841068
 C        -1.335809        -0.375477        -0.917499
 C        -2.066946         0.548500        -1.877625
 C        -0.618735         0.253375        -2.076619
 C         0.409824         1.167202        -1.552296
 C         0.339695         1.031371         0.000459
 O        -0.851046         0.232196         0.277119
 C         1.486975         0.296775         0.621021
 O         2.558405         0.240828         0.018971
 H        -2.363303        -2.271383        -0.205642
 H        -1.503578        -2.403496        -1.895657
 H        -0.613557        -2.331836        -0.283892
 H        -2.865355         0.192427        -2.557495
 H        -2.221161         1.548988        -1.392891
 H        -0.344766        -0.347464        -2.965048
 H         1.447298         1.124689        -1.871745
 H         0.082534         2.179519        -1.724591
 H         0.148690         1.980069         0.463560
 H         1.268889        -0.194636         1.605637
