19
Iteration:    26
 C        -1.962733        -1.907031        -0.962261
 C        -1.362448        -0.473178        -0.953830
 C        -1.999261         0.716211        -1.567782
 C        -0.626304         0.242321        -2.134147
 C         0.641393         0.872284        -1.612489
 C         0.323222         0.970997        -0.091007
 O        -0.665945        -0.065278         0.223308
 C         1.526334         0.399931         0.607557
 O         2.595494         0.699944         0.156138
 H        -2.550723        -1.987506        -0.012713
 H        -2.746478        -1.989929        -1.855440
 H        -1.256188        -2.805440        -1.017523
 H        -2.773905         0.683540        -2.285179
 H        -1.919972         1.563537        -0.919103
 H        -0.633245        -0.192463        -3.138589
 H         1.532500         0.271625        -1.765327
 H         0.674628         2.102456        -2.022686
 H        -0.037191         2.043741         0.236235
 H         1.369162        -0.217107         1.467494
