19
Iteration:   811
 C        -1.377496        -1.885632        -0.795218
 C        -1.297374        -0.346057        -0.909049
 C        -2.151402         0.477227        -1.918821
 C        -0.583923         0.245003        -2.033969
 C         0.488850         1.263704        -1.498256
 C         0.244682         1.097807         0.029499
 O        -0.905806         0.345918         0.329300
 C         1.405286         0.128605         0.434484
 O         2.570665         0.204952         0.030789
 H        -2.010155        -2.259971         0.030404
 H        -1.790969        -2.313111        -1.691854
 H        -0.429039        -2.345495        -0.672517
 H        -2.862062        -0.054686        -2.501264
 H        -2.480060         1.445191        -1.584505
 H        -0.176987        -0.436451        -2.813278
 H         1.488391         1.042365        -1.839990
 H         0.366180         2.401338        -1.916097
 H         0.309208         2.099235         0.527410
 H         1.200376        -0.671938         1.186460
