19
Iteration:  3873charge 0 multiplicity 1
 C        -2.121798        -1.783958        -0.986959
 C        -1.528725        -0.404418        -0.949896
 C        -1.870691         0.874570        -1.799826
 C        -0.704440        -0.060248        -2.261092
 C         0.706283         0.382233        -1.856769
 C         0.483858         0.862304        -0.369132
 O        -0.602199        -0.136782         0.124835
 C         1.734612         0.481098         0.499739
 O         2.377349         1.265163         1.184771
 H        -2.341363        -2.282270         0.010461
 H        -2.997940        -1.800023        -1.552482
 H        -1.520616        -2.464921        -1.510041
 H        -2.732909         0.649667        -2.493494
 H        -1.733094         1.917684        -1.386456
 H        -0.847432        -0.714286        -3.124168
 H         1.333690        -0.427305        -1.797794
 H         0.972289         1.105272        -2.570055
 H         0.112026         1.852716        -0.065520
 H         1.971350        -0.600966         0.446911
