19
Iteration:  3765
 C        -2.315569        -1.655587        -0.983711
 C        -1.309741        -0.484573        -1.000478
 C        -1.852330         0.749619        -1.762961
 C        -0.626174        -0.072421        -2.249400
 C         0.699485         0.661089        -1.819589
 C         0.424641         0.741353        -0.240570
 O        -0.514904        -0.289563         0.124487
 C         1.599497         0.420209         0.635053
 O         2.405052         1.321450         0.910863
 H        -2.906170        -1.686909         0.023482
 H        -3.067428        -1.432990        -1.740046
 H        -1.821512        -2.680796        -1.156402
 H        -2.753335         0.660434        -2.454059
 H        -1.752206         1.778999        -1.346961
 H        -0.576861        -0.605781        -3.175124
 H         1.690920         0.066959        -2.123365
 H         0.800881         1.623228        -2.310019
 H        -0.023090         1.626512         0.119100
 H         1.744226        -0.679012         0.872124
