19
Iteration:   616charge 0 multiplicity 1
 C        -1.550072        -1.896930        -0.873769
 C        -1.144947        -0.473348        -0.877978
 C        -2.149731         0.386018        -1.801516
 C        -0.647963         0.284996        -2.065081
 C         0.350612         1.369685        -1.586167
 C         0.370499         1.198990        -0.064067
 O        -0.893933         0.385913         0.265439
 C         1.534919         0.189365         0.522552
 O         2.633986         0.103852         0.137465
 H        -2.449846        -2.124075        -0.272838
 H        -1.918225        -2.185441        -1.880613
 H        -0.691618        -2.626469        -0.624302
 H        -2.947189        -0.132756        -2.409648
 H        -2.307080         1.254942        -1.180545
 H        -0.417664        -0.413618        -2.854639
 H         1.355576         1.161619        -2.071279
 H         0.091429         2.361405        -1.765153
 H         0.196744         2.122878         0.494630
 H         1.095741        -0.472915         1.261299
