19
Iteration:  1711
 C        -1.338152        -1.833103        -0.719560
 C        -1.344767        -0.371692        -0.986699
 C        -2.082751         0.478205        -1.978994
 C        -0.621567         0.309072        -2.094861
 C         0.432998         1.241459        -1.417039
 C         0.236038         0.980023         0.077559
 O        -1.007134         0.285330         0.344181
 C         1.536077         0.335635         0.603802
 O         2.576195         0.120309        -0.134135
 H        -2.018236        -2.216591        -0.117184
 H        -1.426319        -2.181890        -1.750278
 H        -0.326134        -2.268279        -0.464795
 H        -2.665699        -0.138644        -2.658487
 H        -2.543867         1.381023        -1.637385
 H        -0.419090        -0.156262        -3.035825
 H         1.463577         0.919258        -1.722574
 H         0.417453         2.282421        -1.781702
 H         0.075093         1.944119         0.614289
 H         1.515190        -0.247314         1.568680
