19
Iteration:  1128charge 0 multiplicity 1
 C        -1.701303        -1.929346        -0.789267
 C        -1.276553        -0.407826        -0.922840
 C        -2.145215         0.361969        -1.858696
 C        -0.653598         0.299585        -2.104031
 C         0.326378         1.336456        -1.608565
 C         0.365788         1.094259        -0.046279
 O        -0.786360         0.229365         0.249696
 C         1.597051         0.238548         0.377607
 O         2.756422         0.301805         0.345715
 H        -2.518562        -1.940416         0.089520
 H        -2.241289        -2.270654        -1.670768
 H        -0.845190        -2.670949        -0.663843
 H        -2.916765         0.042776        -2.593002
 H        -2.371784         1.361747        -1.492248
 H        -0.336142        -0.250593        -2.996148
 H         1.268460         1.152505        -1.983553
 H         0.022842         2.296619        -1.905465
 H         0.302295         2.058748         0.505889
 H         0.981188        -0.715362         0.806072
