19
Iteration:  1190
 C        -1.584120        -1.801491        -0.749556
 C        -1.475236        -0.340118        -0.917886
 C        -2.115719         0.531168        -2.015123
 C        -0.636407         0.307634        -2.086331
 C         0.407649         1.146869        -1.555491
 C         0.348783         0.801005         0.084659
 O        -0.979477         0.238783         0.285428
 C         1.654538         0.051148         0.341438
 O         2.757571         0.558320         0.229657
 H        -2.068701        -1.924437         0.167376
 H        -1.967035        -2.484869        -1.490609
 H        -0.654911        -2.121016        -0.425908
 H        -2.712551        -0.091446        -2.641977
 H        -2.534683         1.446994        -1.713583
 H        -0.359668        -0.328232        -2.926664
 H         1.543067         0.919995        -1.864227
 H         0.201011         2.290454        -1.764649
 H         0.289336         1.729526         0.799039
 H         1.620373        -1.049583         0.591840
