19
Iteration:  1198
 C        -1.590322        -1.794045        -0.702370
 C        -1.460574        -0.349261        -0.914200
 C        -2.158092         0.496741        -1.957353
 C        -0.644713         0.295881        -2.139196
 C         0.403401         1.158319        -1.503507
 C         0.320234         0.850571         0.043147
 O        -1.004261         0.236817         0.253807
 C         1.664516         0.045296         0.368553
 O         2.817590         0.560977         0.230549
 H        -2.321411        -2.048680         0.057205
 H        -1.882419        -2.272938        -1.724069
 H        -0.543390        -2.201509        -0.466250
 H        -2.664034         0.073246        -2.807191
 H        -2.587043         1.502473        -1.807760
 H        -0.128663        -0.320181        -2.857102
 H         1.378752         0.747273        -1.984298
 H         0.388879         2.325641        -1.635584
 H         0.366896         1.600338         0.746612
 H         1.564368        -1.116106         0.584298
