19
Iteration:  1147charge 0 multiplicity 1
 C        -1.692403        -1.895293        -0.781767
 C        -1.263026        -0.490200        -0.970270
 C        -2.041863         0.519934        -1.777171
 C        -0.557594         0.168353        -2.134645
 C         0.359323         1.360659        -1.599960
 C         0.304056         1.037043        -0.100130
 O        -0.864782         0.258702         0.303788
 C         1.558683         0.112568         0.359971
 O         2.687448         0.407583         0.306419
 H        -2.191040        -1.945455         0.171780
 H        -2.345211        -2.170498        -1.598227
 H        -0.897791        -2.573505        -0.781084
 H        -2.738974        -0.026047        -2.364661
 H        -2.472531         1.377553        -1.326275
 H        -0.398553        -0.410706        -3.036833
 H         1.344784         1.339656        -2.153644
 H        -0.103923         2.313156        -1.738383
 H         0.468441         1.996293         0.576700
 H         1.176968        -0.828941         0.730672
