19
Iteration:  4950
 C        -1.658646        -1.871788        -0.827306
 C        -1.335540        -0.354308        -1.065284
 C        -1.888846         0.353713        -2.237900
 C        -0.392577        -0.083429        -2.119182
 C         0.590958         1.028402        -1.633348
 C         0.256193         1.125657        -0.116397
 O        -0.963364         0.341081         0.125475
 C         1.303205         0.466956         0.869546
 O         2.519184         0.443620         0.615633
 H        -0.915022        -2.240132        -0.127990
 H        -2.762181        -1.899133        -0.365956
 H        -1.451657        -2.308749        -1.771381
 H        -2.442286        -0.221249        -2.950771
 H        -2.151716         1.392688        -2.088849
 H        -0.027457        -0.808090        -2.856790
 H         1.672424         0.802949        -1.859736
 H         0.521183         1.907747        -2.222375
 H         0.141741         2.218992         0.231043
 H         1.019417         0.108748         1.915198
