19
Iteration:  2200
 C        -1.520778        -1.930528        -0.700218
 C        -1.316674        -0.380768        -0.956815
 C        -2.079661         0.487565        -1.883795
 C        -0.617387         0.282484        -2.135319
 C         0.371819         1.307575        -1.502538
 C         0.305525         0.986846         0.024766
 O        -0.943501         0.311853         0.189509
 C         1.511193         0.053509         0.408099
 O         2.705176         0.360668         0.180882
 H        -1.874738        -1.955582         0.433473
 H        -2.142804        -2.404702        -1.501611
 H        -0.557346        -2.238340        -0.852954
 H        -2.654375         0.024160        -2.709264
 H        -2.594162         1.398350        -1.521291
 H        -0.148308        -0.362581        -2.815231
 H         1.333044         1.276292        -1.924334
 H         0.115666         2.347823        -1.432994
 H         0.370464         1.938473         0.795558
 H         1.119404        -0.975328         0.739206
