19
Iteration:  4836
 C        -1.890468        -1.842588        -0.918231
 C        -1.265250        -0.477655        -1.011905
 C        -1.872029         0.396113        -2.045270
 C        -0.363103        -0.004611        -2.169550
 C         0.657779         0.929757        -1.642467
 C         0.290786         0.932536        -0.065224
 O        -0.979491         0.359743         0.151269
 C         1.359061         0.453327         0.781984
 O         2.568168         0.703493         0.577060
 H        -2.986171        -2.126893        -0.907685
 H        -1.614219        -2.370754        -1.807664
 H        -1.425323        -2.598677        -0.159949
 H        -2.530347        -0.044327        -2.823716
 H        -2.142133         1.461973        -1.833494
 H        -0.214550        -0.811068        -2.995651
 H         1.623321         0.532541        -1.856990
 H         0.804522         1.958538        -2.098932
 H         0.179253         2.061768         0.301451
 H         0.887728        -0.214076         1.582360
