19
Iteration:  4535
 C        -2.239506        -1.793131        -1.029913
 C        -1.439740        -0.484976        -1.054379
 C        -1.827474         0.864408        -1.802836
 C        -0.687552         0.027941        -2.268430
 C         0.646286         0.555853        -1.742144
 C         0.398520         0.671042        -0.131783
 O        -0.620264        -0.248042         0.183445
 C         1.752642         0.436550         0.611489
 O         2.495549         1.368481         0.841373
 H        -3.406970        -1.788952        -1.006713
 H        -1.975247        -2.330297        -2.026970
 H        -2.207286        -2.528671        -0.268985
 H        -2.693216         1.044932        -2.499443
 H        -1.583642         1.757932        -1.200585
 H        -0.913671        -0.555856        -3.193336
 H         1.598376        -0.004579        -2.003060
 H         0.835927         1.548385        -2.137244
 H         0.279970         1.695742         0.203795
 H         1.835293        -0.596472         0.964833
