19
Iteration:  1434charge 0 multiplicity 1
 C        -1.562778        -1.870457        -0.884894
 C        -1.345095        -0.412788        -0.929429
 C        -2.036888         0.561726        -1.790019
 C        -0.645827         0.148812        -2.085761
 C         0.383053         1.163590        -1.566845
 C         0.307879         1.019432        -0.000379
 O        -0.845716         0.212949         0.282803
 C         1.558971         0.257424         0.557510
 O         2.604492         0.381941         0.107465
 H        -2.534502        -2.106902        -0.346413
 H        -1.650589        -2.285400        -1.867044
 H        -0.775927        -2.435813        -0.433763
 H        -2.706698         0.119911        -2.595536
 H        -2.245050         1.647707        -1.596647
 H        -0.491669        -0.316387        -3.042089
 H         1.452632         0.903438        -1.914035
 H         0.227385         2.268426        -1.831789
 H         0.303103         2.013374         0.430337
 H         1.371293        -0.255066         1.543822
