19
Iteration:  2881charge 0 multiplicity 1
 C        -1.384763        -1.880840        -0.876009
 C        -1.272164        -0.319990        -0.870013
 C        -2.081454         0.413166        -1.794650
 C        -0.583932         0.230472        -2.096120
 C         0.421322         1.256851        -1.557528
 C         0.295562         1.088609        -0.028312
 O        -0.945651         0.409571         0.283002
 C         1.439599         0.106129         0.569888
 O         2.529196         0.221939         0.072281
 H        -1.948972        -2.253899         0.061685
 H        -1.690054        -2.347039        -1.907179
 H        -0.361732        -2.255511        -0.711566
 H        -2.761241        -0.113986        -2.476567
 H        -2.412939         1.435338        -1.602051
 H        -0.263802        -0.475838        -2.848278
 H         1.405933         0.961684        -1.879720
 H         0.254514         2.270556        -1.847600
 H         0.296862         2.213389         0.382488
 H         1.129347        -0.780359         1.170072
