19
Iteration:  3151
 C        -1.394015        -1.875896        -0.718811
 C        -1.222792        -0.397486        -0.945585
 C        -2.085905         0.437533        -1.955211
 C        -0.537600         0.270149        -2.033127
 C         0.396403         1.295971        -1.398389
 C         0.275118         0.992139         0.074433
 O        -1.033895         0.397204         0.245215
 C         1.465012         0.119804         0.498814
 O         2.572902         0.249469        -0.069504
 H        -1.875277        -2.188629         0.209443
 H        -2.053741        -2.306859        -1.483544
 H        -0.433724        -2.296803        -0.783032
 H        -2.676626         0.125334        -2.849538
 H        -2.425465         1.443234        -1.537314
 H        -0.036210        -0.282946        -2.869895
 H         1.402111         0.992982        -1.783964
 H         0.249322         2.326727        -1.861089
 H         0.239154         1.870646         0.795249
 H         1.225905        -0.648207         1.271635
