19
Iteration:  1089charge 0 multiplicity 1
 C        -1.461829        -1.826226        -0.736807
 C        -1.393838        -0.398731        -0.989470
 C        -2.139494         0.552647        -1.895276
 C        -0.743981         0.277490        -2.174514
 C         0.352663         1.196488        -1.592095
 C         0.384733         0.769484        -0.060919
 O        -0.921579         0.301782         0.278173
 C         1.601941         0.110218         0.500547
 O         2.697944         0.442350         0.238968
 H        -2.315900        -2.047651        -0.216308
 H        -1.577887        -2.457047        -1.623365
 H        -0.541362        -2.070260        -0.189544
 H        -3.012212         0.255577        -2.520228
 H        -2.200768         1.536562        -1.380767
 H        -0.373918        -0.453303        -2.919762
 H         1.332503         1.097059        -2.308882
 H         0.202755         2.374855        -1.495508
 H         0.470517         1.786206         0.602842
 H         1.391510        -0.616893         1.348204
