19
Iteration:  4565charge 0 multiplicity 1
 C        -2.140382        -1.662708        -0.972221
 C        -1.367671        -0.444408        -1.091824
 C        -1.920120         0.828393        -1.632052
 C        -0.604594         0.091615        -2.278338
 C         0.815914         0.451924        -1.678968
 C         0.341804         0.722187        -0.175072
 O        -0.591478        -0.320529         0.068048
 C         1.537110         0.448896         0.641202
 O         2.449092         1.318570         0.718588
 H        -3.128776        -1.525847        -0.689570
 H        -2.299520        -2.066471        -2.019034
 H        -1.631064        -2.421029        -0.272410
 H        -2.765205         0.647827        -2.323908
 H        -2.052344         1.803624        -1.151415
 H        -0.876899        -0.361798        -3.198376
 H         1.513188        -0.320408        -1.646274
 H         1.193406         1.425416        -2.113971
 H        -0.039900         1.705558         0.108374
 H         1.435486        -0.587097         1.170325
