19
Iteration:  4864
 C        -1.781652        -1.829010        -0.752188
 C        -1.359378        -0.425227        -1.089554
 C        -1.848804         0.486479        -2.286419
 C        -0.392534        -0.014604        -2.211092
 C         0.599679         0.949902        -1.620538
 C         0.259207         0.995883        -0.001684
 O        -0.995332         0.192956         0.137225
 C         1.430167         0.472492         0.867351
 O         2.578290         0.646648         0.580052
 H        -2.502081        -1.813070         0.092609
 H        -2.270527        -2.447037        -1.569201
 H        -0.913418        -2.460993        -0.616379
 H        -2.511250         0.215880        -3.073962
 H        -2.002241         1.517992        -2.013876
 H        -0.147063        -0.884758        -2.787722
 H         1.652721         0.619450        -1.968653
 H         0.424130         1.933893        -2.017158
 H         0.061642         1.990511         0.257133
 H         1.001214        -0.240585         1.551938
