19
Iteration:  1530charge 0 multiplicity 1
 C        -1.572115        -1.904023        -0.788394
 C        -1.291894        -0.379008        -0.923861
 C        -2.141265         0.392706        -1.940367
 C        -0.649171         0.248419        -2.192869
 C         0.254121         1.377900        -1.541661
 C         0.367270         1.039498        -0.012997
 O        -0.843794         0.263980         0.254714
 C         1.624138         0.191569         0.534695
 O         2.748758         0.250797         0.205353
 H        -2.427245        -2.089386         0.048809
 H        -2.050083        -2.306560        -1.658108
 H        -0.863040        -2.595976        -0.361495
 H        -2.930358         0.077397        -2.644136
 H        -2.308993         1.404517        -1.586580
 H        -0.274996        -0.349888        -2.983084
 H         1.240913         1.666284        -1.962417
 H        -0.226938         2.332652        -1.748822
 H         0.205598         1.901377         0.723339
 H         1.077672        -0.398981         1.385155
