19
Iteration:   550
 C        -1.485817        -1.858044        -0.687876
 C        -1.239900        -0.443949        -0.959207
 C        -2.028826         0.564709        -1.871413
 C        -0.659817         0.292453        -2.204822
 C         0.422646         1.226285        -1.415140
 C         0.259095         1.000540         0.026767
 O        -0.975809         0.219324         0.244112
 C         1.526054         0.289745         0.569537
 O         2.610432         0.195594        -0.048627
 H        -2.253018        -1.923538         0.085517
 H        -1.927135        -2.378658        -1.602527
 H        -0.485382        -2.305958        -0.522118
 H        -2.815849         0.050941        -2.549729
 H        -2.305729         1.541181        -1.314200
 H        -0.331851        -0.130602        -3.163014
 H         1.448115         1.029177        -1.887722
 H         0.341609         2.259572        -1.693426
 H         0.225634         1.983510         0.548233
 H         1.426110        -0.146443         1.658982
