19
Iteration:  1269
 C        -1.627557        -1.861630        -0.781045
 C        -1.324904        -0.439344        -0.957033
 C        -2.142418         0.489040        -1.822338
 C        -0.671824         0.261823        -2.162066
 C         0.309174         1.264874        -1.617887
 C         0.352655         1.074195        -0.026735
 O        -0.800443         0.140933         0.203722
 C         1.544392         0.252122         0.541316
 O         2.798160         0.324942         0.280574
 H        -2.526004        -1.984192        -0.136259
 H        -1.760752        -2.337803        -1.656948
 H        -0.785056        -2.275874        -0.355864
 H        -2.960502         0.152292        -2.499437
 H        -2.397351         1.550369        -1.534354
 H        -0.493414        -0.380544        -3.061639
 H         1.363037         1.062722        -2.008769
 H         0.039360         2.319809        -1.795359
 H         0.126397         2.153089         0.319342
 H         1.170570        -0.724228         1.084709
