19
Iteration:  1714charge 0 multiplicity 1
 C        -1.322522        -1.840802        -0.747371
 C        -1.335308        -0.374584        -0.982411
 C        -2.076909         0.482411        -1.980134
 C        -0.618124         0.303587        -2.077485
 C         0.406137         1.239400        -1.411270
 C         0.235861         0.977878         0.069387
 O        -0.990600         0.302129         0.344049
 C         1.549528         0.307706         0.566200
 O         2.556186         0.124125        -0.104469
 H        -2.161434        -2.254671        -0.099575
 H        -1.462740        -2.188348        -1.757655
 H        -0.305455        -2.163438        -0.351075
 H        -2.661577        -0.145294        -2.650032
 H        -2.594861         1.399051        -1.628630
 H        -0.472756        -0.146553        -3.049446
 H         1.461181         0.847742        -1.747080
 H         0.438486         2.301674        -1.837894
 H         0.011522         2.020862         0.682451
 H         1.627073        -0.156081         1.548403
